#------------------------------------------------------------------------------
#$Date: 2019-11-10 01:47:34 +0200 (Sun, 10 Nov 2019) $
#$Revision: 225592 $
#$URL: file:///home/coder/svn-repositories/cod/cif/4/51/54/4515438.cif $
#------------------------------------------------------------------------------
#
# This file is available in the Crystallography Open Database (COD),
# http://www.crystallography.net/
#
# All data on this site have been placed in the public domain by the
# contributors.
#
data_4515438
loop_
_publ_author_name
'Jin, Jianqun'
'Long, Guankui'
'Gao, Yongqian'
'Zhang, Jing'
'Ou, Changjin'
'Zhu, Caixia'
'Xu, Haixiao'
'Zhao, Jianfeng'
'Zhang, Mingtao'
'Huang, Wei'
_publ_section_title
;
 Supramolecular Design of Donor-Acceptor Complexes via Heteroatom
 Replacement toward Structure and Electrical Transporting Property
 Tailoring.
;
_journal_issue                   1
_journal_name_full               'ACS applied materials &amp; interfaces'
_journal_page_first              1109
_journal_page_last               1116
_journal_paper_doi               10.1021/acsami.8b16561
_journal_volume                  11
_journal_year                    2019
_chemical_formula_sum            'C58 H28 N14 O0'
_chemical_formula_weight         920.94
_space_group_crystal_system      triclinic
_space_group_IT_number           2
_space_group_name_Hall           '-P 1'
_space_group_name_H-M_alt        'P -1'
_atom_sites_solution_hydrogens   geom
_audit_creation_method           SHELXL-2016/6
_cell_angle_alpha                95.203(4)
_cell_angle_beta                 102.662(4)
_cell_angle_gamma                111.433(4)
_cell_formula_units_Z            2
_cell_length_a                   11.4869(17)
_cell_length_b                   13.353(2)
_cell_length_c                   16.424(3)
_cell_measurement_reflns_used    4886
_cell_measurement_temperature    299(2)
_cell_measurement_theta_max      27.36
_cell_measurement_theta_min      2.30
_cell_volume                     2247.1(6)
_computing_cell_refinement       'Bruker SAINT'
_computing_data_collection       'Bruker APEX2'
_computing_data_reduction        'Bruker SAINT'
_computing_molecular_graphics    'SHELXL-2016/6 (Sheldrick, 2016)'
_computing_publication_material  'SHELXL-2016/6 (Sheldrick, 2016)'
_computing_structure_refinement  'SHELXL-2016/6 (Sheldrick, 2016)'
_computing_structure_solution    'SHELXT 2014/5 (Sheldrick, 2014)'
_diffrn_ambient_temperature      299(2)
_diffrn_measured_fraction_theta_full 0.969
_diffrn_measured_fraction_theta_max 0.969
_diffrn_measurement_device_type  'Bruker APEX-II CCD'
_diffrn_measurement_method       '\f and \w scans'
_diffrn_radiation_type           MoK\a
_diffrn_radiation_wavelength     0.71073
_diffrn_reflns_av_R_equivalents  0.0765
_diffrn_reflns_av_unetI/netI     0.1521
_diffrn_reflns_Laue_measured_fraction_full 0.969
_diffrn_reflns_Laue_measured_fraction_max 0.969
_diffrn_reflns_limit_h_max       13
_diffrn_reflns_limit_h_min       -13
_diffrn_reflns_limit_k_max       15
_diffrn_reflns_limit_k_min       -15
_diffrn_reflns_limit_l_max       19
_diffrn_reflns_limit_l_min       -13
_diffrn_reflns_number            14338
_diffrn_reflns_point_group_measured_fraction_full 0.969
_diffrn_reflns_point_group_measured_fraction_max 0.969
_diffrn_reflns_theta_full        25.000
_diffrn_reflns_theta_max         25.000
_diffrn_reflns_theta_min         1.668
_exptl_absorpt_coefficient_mu    0.085
_exptl_absorpt_correction_T_max  0.989
_exptl_absorpt_correction_T_min  0.986
_exptl_absorpt_correction_type   multi-scan
_exptl_crystal_colour            'clear blackish black'
_exptl_crystal_density_diffrn    1.361
_exptl_crystal_description       block
_exptl_crystal_F_000             948
_exptl_crystal_size_max          0.170
_exptl_crystal_size_mid          0.150
_exptl_crystal_size_min          0.130
_refine_diff_density_max         0.327
_refine_diff_density_min         -0.336
_refine_diff_density_rms         0.071
_refine_ls_extinction_method     none
_refine_ls_goodness_of_fit_ref   1.015
_refine_ls_hydrogen_treatment    constr
_refine_ls_matrix_type           full
_refine_ls_number_parameters     649
_refine_ls_number_reflns         7667
_refine_ls_number_restraints     642
_refine_ls_restrained_S_all      0.975
_refine_ls_R_factor_all          0.1757
_refine_ls_R_factor_gt           0.0954
_refine_ls_shift/su_max          0.000
_refine_ls_shift/su_mean         0.000
_refine_ls_structure_factor_coef Fsqd
_refine_ls_weighting_details
'w=1/[\s^2^(Fo^2^)+(0.0864P)^2^] where P=(Fo^2^+2Fc^2^)/3'
_refine_ls_weighting_scheme      calc
_refine_ls_wR_factor_gt          0.2038
_refine_ls_wR_factor_ref         0.2290
_reflns_Friedel_coverage         0.000
_reflns_number_gt                3904
_reflns_number_total             7667
_reflns_threshold_expression     'I > 2\s(I)'
_cod_data_source_file            am8b16561_si_004.cif
_cod_data_source_block           2_a
_cod_original_cell_volume        2247.2(6)
_cod_database_code               4515438
_shelx_shelxl_version_number     2016/6
_shelx_space_group_comment
; 
The symmetry employed for this shelxl refinement is uniquely defined 
by the following loop, which should always be used as a source of 
symmetry information in preference to the above space-group names. 
They are only intended as comments. 
;
_shelx_estimated_absorpt_t_min   0.986
_shelx_estimated_absorpt_t_max   0.989
_shelx_res_file
; 
TITL 2_a.res in P-1 
    2_a.res 
    created by SHELXL-2016/6 at 14:15:41 on 31-Oct-2018 
CELL  0.71073  11.4869  13.3534  16.4240   95.203  102.662  111.433 
ZERR   2.000   0.0017   0.0021   0.0025    0.004    0.004    0.004 
LATT 1 
SFAC C  H  N  O 
UNIT 116 56 28 0 
LIST 4 
OMIT 0 50 
omit    -5   5  14 
omit     0   0   1 
L.S. 4 
ACTA 
BOND $H 
conf 
size 0.13 0.15 0.17 
delu 
simu 
FMAP 2 
PLAN 20 
TEMP 25.730 
WGHT    0.086400 
FVAR       0.32363 
N1    3    1.051095    0.286666    0.671876    11.00000    0.02980    0.03253 = 
         0.02511    0.00029    0.00446    0.01168 
C1    1    1.182025    0.332036    0.721288    11.00000    0.02387    0.02644 = 
         0.02734   -0.00149    0.00079    0.00679 
N2    3    1.072962    0.331589    0.541631    11.00000    0.03589    0.03500 = 
         0.02913    0.00474    0.00550    0.01056 
C2    1    1.294100    0.362034    0.695389    11.00000    0.03777    0.04524 = 
         0.03713    0.01181    0.01618    0.01901 
AFIX  43 
H2    2    1.292516    0.356806    0.638273    11.00000   -1.20000 
AFIX   0 
N3    3    1.036811    0.311633    0.456039    11.00000    0.03817    0.03271 = 
         0.02481    0.00367    0.00304    0.00962 
C3    1    1.409423    0.400478    0.759405    11.00000    0.02990    0.04075 = 
         0.05564    0.00964    0.01104    0.01558 
AFIX  43 
H3    2    1.487184    0.421209    0.744303    11.00000   -1.20000 
AFIX   0 
C5    1    1.302240    0.380005    0.869150    11.00000    0.03859    0.03494 = 
         0.03017    0.00120    0.00030    0.01575 
AFIX  43 
H5    2    1.304684    0.386239    0.926418    11.00000   -1.20000 
AFIX   0 
N5    3    1.322016    0.582699    0.328906    11.00000    0.04428    0.07013 = 
         0.04654    0.00379   -0.00055    0.01085 
N4    3    0.907987    0.205304    0.325825    11.00000    0.02987    0.03553 = 
         0.02467    0.00286    0.00665    0.01428 
C4    1    1.414255    0.409430    0.844495    11.00000    0.03496    0.03965 = 
         0.04619    0.00367    0.00323    0.01407 
AFIX  43 
H4    2    1.494102    0.435603    0.885203    11.00000   -1.20000 
AFIX   0 
C6    1    1.184455    0.340525    0.806819    11.00000    0.02861    0.01983 = 
         0.03122   -0.00039    0.00109    0.00816 
N6    3    1.209251    0.497529    0.060106    11.00000    0.06683    0.08066 = 
         0.04964    0.01372    0.02475    0.02805 
C7    1    1.052208    0.300694    0.811441    11.00000    0.03339    0.02657 = 
         0.02314   -0.00416    0.00434    0.01266 
N7    3    0.532191    0.335900    0.325957    11.00000    0.05659    0.07122 = 
         0.04675    0.00371    0.02291    0.01685 
N8    3    0.422491    0.291646    0.057480    11.00000    0.04255    0.07489 = 
         0.05444   -0.00211   -0.00193    0.01374 
C8    1    0.995971    0.291490    0.878828    11.00000    0.05061    0.03265 = 
         0.02997    0.00353    0.00912    0.01942 
AFIX  43 
H8    2    1.047860    0.312353    0.934598    11.00000   -1.20000 
AFIX   0 
C9    1    0.863557    0.251425    0.862120    11.00000    0.04660    0.04506 = 
         0.04520    0.00976    0.02527    0.02133 
AFIX  43 
H9    2    0.825110    0.244109    0.906737    11.00000   -1.20000 
AFIX   0 
N9    3    0.784946    0.853450    0.502543    11.00000    0.04214    0.05127 = 
         0.07719    0.01132    0.01478    0.01181 
N10   3    0.380761    0.796584    0.501944    11.00000    0.05581    0.07366 = 
         0.06343    0.01214    0.01801    0.03628 
C10   1    0.786273    0.221624    0.778834    11.00000    0.03131    0.04656 = 
         0.05435    0.00813    0.01314    0.01692 
AFIX  43 
H10   2    0.696457    0.194806    0.768909    11.00000   -1.20000 
AFIX   0 
C11   1    0.837855    0.230391    0.710783    11.00000    0.03089    0.03676 = 
         0.03573    0.00319    0.00565    0.01202 
AFIX  43 
H11   2    0.785122    0.211169    0.655310    11.00000   -1.20000 
AFIX   0 
N11   3    1.319606    1.068639    0.339952    11.00000    0.03932    0.08337 = 
         0.05734   -0.01695   -0.00674    0.01591 
C12   1    0.972847    0.269381    0.728269    11.00000    0.03189    0.02335 = 
         0.03526   -0.00021    0.01196    0.01072 
N12   3    1.206880    1.010253    0.065169    11.00000    0.06423    0.08153 = 
         0.05301    0.01990    0.02750    0.02750 
C13   1    1.006574    0.260294    0.582832    11.00000    0.03124    0.02785 = 
         0.02436    0.00399    0.00414    0.01525 
N13   3    0.551457    0.859117    0.345373    11.00000    0.06127    0.10596 = 
         0.05273    0.02745    0.02932    0.03668 
C14   1    0.903368    0.162579    0.541455    11.00000    0.03769    0.02778 = 
         0.03099    0.00871    0.00919    0.01086 
AFIX  43 
H14   2    0.860328    0.112508    0.571716    11.00000   -1.20000 
AFIX   0 
N14   3    0.424165    0.785253    0.072858    11.00000    0.04175    0.07941 = 
         0.05638   -0.00189   -0.00112    0.02049 
C15   1    0.867857    0.142910    0.456091    11.00000    0.03797    0.02470 = 
         0.02557    0.00154    0.00412    0.00948 
AFIX  43 
H15   2    0.798175    0.079262    0.425458    11.00000   -1.20000 
AFIX   0 
C16   1    0.937795    0.219978    0.414789    11.00000    0.03235    0.02528 = 
         0.02467    0.00099    0.00269    0.01197 
C17   1    0.782170    0.159883    0.268916    11.00000    0.02825    0.02642 = 
         0.03071    0.00178    0.00156    0.01393 
C19   1    0.554700    0.089508    0.217523    11.00000    0.03124    0.04236 = 
         0.05338    0.00391    0.00869    0.01290 
AFIX  43 
H19   2    0.472957    0.066696    0.227200    11.00000   -1.20000 
AFIX   0 
C18   1    0.662423    0.130965    0.286206    11.00000    0.03188    0.03924 = 
         0.03339    0.00173    0.00947    0.01590 
AFIX  43 
H18   2    0.655482    0.139250    0.341554    11.00000   -1.20000 
AFIX   0 
C20   1    0.562595    0.080220    0.134454    11.00000    0.03481    0.04251 = 
         0.04137    0.00102   -0.00140    0.01124 
AFIX  43 
H20   2    0.487282    0.053089    0.089636    11.00000   -1.20000 
AFIX   0 
C21   1    0.682115    0.111238    0.118497    11.00000    0.04098    0.03023 = 
         0.02990   -0.00151    0.00003    0.01150 
AFIX  43 
H21   2    0.688347    0.104747    0.062912    11.00000   -1.20000 
AFIX   0 
C22   1    0.792746    0.152096    0.185743    11.00000    0.02985    0.02614 = 
         0.02284    0.00126    0.00415    0.00759 
C23   1    0.997073    0.226389    0.276862    11.00000    0.02838    0.02947 = 
         0.03079    0.00658    0.00901    0.01383 
C24   1    1.131485    0.268532    0.301668    11.00000    0.03102    0.03746 = 
         0.03661   -0.00049    0.00322    0.00991 
AFIX  43 
H24   2    1.177550    0.289971    0.358784    11.00000   -1.20000 
AFIX   0 
C25   1    1.194445    0.277558    0.238839    11.00000    0.03396    0.04425 = 
         0.05496    0.00707    0.01501    0.01559 
AFIX  43 
H25   2    1.284796    0.305777    0.254305    11.00000   -1.20000 
AFIX   0 
C26   1    1.128342    0.246200    0.153407    11.00000    0.04606    0.03772 = 
         0.05130    0.01059    0.02673    0.02008 
AFIX  43 
H26   2    1.174325    0.254099    0.112666    11.00000   -1.20000 
AFIX   0 
C27   1    0.995109    0.203492    0.128763    11.00000    0.04452    0.03065 = 
         0.02605    0.00187    0.00984    0.01353 
AFIX  43 
H27   2    0.949912    0.181991    0.071485    11.00000   -1.20000 
AFIX   0 
C28   1    0.929051    0.192965    0.190799    11.00000    0.03729    0.02449 = 
         0.02672    0.00664    0.00757    0.01586 
C29   1    1.236385    0.545456    0.270514    11.00000    0.03716    0.03736 = 
         0.03707    0.00522    0.00870    0.01375 
C30   1    1.173423    0.500444    0.118890    11.00000    0.03306    0.04162 = 
         0.03692    0.00577    0.00373    0.01072 
C31   1    1.132002    0.501469    0.194764    11.00000    0.03388    0.03486 = 
         0.03105    0.00496    0.00549    0.01515 
C32   1    1.003509    0.463722    0.194593    11.00000    0.03239    0.02514 = 
         0.03091    0.00473    0.00343    0.01085 
C33   1    0.966773    0.462537    0.271995    11.00000    0.03482    0.03523 = 
         0.02700    0.00301    0.00380    0.01342 
AFIX  43 
H33   2    1.030615    0.486785    0.323587    11.00000   -1.20000 
AFIX   0 
C34   1    0.841228    0.426870    0.271337    11.00000    0.03971    0.03532 = 
         0.02236    0.00491    0.00830    0.01512 
AFIX  43 
H34   2    0.818953    0.426990    0.322466    11.00000   -1.20000 
AFIX   0 
C35   1    0.740616    0.388423    0.192423    11.00000    0.03412    0.02484 = 
         0.03005    0.00198    0.00536    0.01257 
C36   1    0.778160    0.390875    0.115756    11.00000    0.03486    0.03373 = 
         0.02211   -0.00034   -0.00018    0.00952 
AFIX  43 
H36   2    0.714570    0.367699    0.064086    11.00000   -1.20000 
AFIX   0 
C37   1    0.902585    0.425688    0.116321    11.00000    0.03844    0.03824 = 
         0.02186    0.00139    0.00714    0.01501 
AFIX  43 
H37   2    0.924485    0.425350    0.065067    11.00000   -1.20000 
AFIX   0 
C38   1    0.612169    0.351669    0.192356    11.00000    0.03455    0.03355 = 
         0.02857    0.00320    0.00561    0.01179 
C39   1    0.570901    0.344789    0.267519    11.00000    0.02878    0.03534 = 
         0.04085   -0.00021    0.00441    0.00847 
C40   1    0.508957    0.318442    0.115967    11.00000    0.03648    0.03942 = 
         0.04363    0.00124    0.00905    0.01143 
C41   1    0.374138    0.430804    0.499587    11.00000    0.01793    0.04470 = 
         0.02586   -0.00387    0.00199    0.00580 
AFIX  43 
H41   2    0.290606    0.384490    0.499056    11.00000   -1.20000 
AFIX   0 
C42   1    0.401608    0.537748    0.500541    11.00000    0.02293    0.04547 = 
         0.02692    0.00074    0.00303    0.01242 
AFIX  43 
H42   2    0.336794    0.563649    0.501161    11.00000   -1.20000 
AFIX   0 
C43   1    0.529623    0.613906    0.500630    11.00000    0.02522    0.04276 = 
         0.01773   -0.00176    0.00172    0.00855 
C44   1    0.556668    0.722182    0.502215    11.00000    0.03029    0.03709 = 
         0.02809    0.00270    0.00758    0.01135 
C45   1    0.459823    0.765280    0.502236    11.00000    0.03600    0.04845 = 
         0.03805    0.00815    0.01313    0.01379 
C46   1    0.683063    0.796668    0.501443    11.00000    0.03709    0.03805 = 
         0.03285    0.00504    0.00908    0.01291 
C47   1    0.581849    0.856702    0.283974    11.00000    0.03090    0.04451 = 
         0.04743    0.01020    0.00536    0.01469 
C48   1    0.511581    0.815223    0.131104    11.00000    0.03433    0.04310 = 
         0.04864    0.00483    0.01217    0.01312 
C49   1    0.617126    0.854026    0.205732    11.00000    0.03479    0.03147 = 
         0.03508    0.00132    0.00678    0.00870 
C50   1    0.745397    0.889802    0.205096    11.00000    0.03614    0.02233 = 
         0.03491   -0.00032    0.00537    0.01083 
C51   1    0.846674    0.928189    0.282723    11.00000    0.03834    0.02940 = 
         0.02648    0.00264    0.00954    0.01381 
AFIX  43 
H51   2    0.825996    0.926479    0.334389    11.00000   -1.20000 
AFIX   0 
C52   1    0.971507    0.966704    0.281436    11.00000    0.02882    0.03053 = 
         0.02795   -0.00281   -0.00239    0.01167 
AFIX  43 
H52   2    1.036474    0.992860    0.332529    11.00000   -1.20000 
AFIX   0 
C53   1    1.006826    0.968429    0.203401    11.00000    0.03694    0.02572 = 
         0.03181    0.00203    0.00687    0.01290 
C54   1    0.904278    0.929285    0.125864    11.00000    0.03728    0.03774 = 
         0.02717    0.00229    0.00760    0.01316 
AFIX  43 
H54   2    0.925052    0.930367    0.074224    11.00000   -1.20000 
AFIX   0 
C55   1    0.779283    0.891215    0.126195    11.00000    0.03905    0.03286 = 
         0.03075   -0.00286    0.00337    0.01109 
AFIX  43 
H55   2    0.714305    0.865632    0.075109    11.00000   -1.20000 
AFIX   0 
C56   1    1.135138    1.004809    0.202687    11.00000    0.03545    0.03310 = 
         0.03695    0.00353    0.00841    0.01424 
C57   1    1.238533    1.041479    0.279906    11.00000    0.03264    0.03874 = 
         0.04563   -0.00121    0.01143    0.01090 
C58   1    1.174114    1.007637    0.125491    11.00000    0.03684    0.04434 = 
         0.04661    0.01074    0.01217    0.01388 
HKLF 4 
  
  
  
  
REM  2_a.res in P-1 
REM R1 =  0.0954 for    3904 Fo > 4sig(Fo)  and  0.1757 for all    7667 data 
REM    649 parameters refined using    642 restraints 
  
END 
  
WGHT      0.0865      0.0000 
  
REM Highest difference peak  0.327,  deepest hole -0.336,  1-sigma level  0.071 
Q1    1   1.2415  0.2987  0.5785  11.00000  0.05    0.33 
Q2    1   0.2781  0.7619  0.4970  11.00000  0.05    0.32 
Q3    1   0.7892  0.1821  0.5385  11.00000  0.05    0.32 
Q4    1   1.1485  0.5549  0.3484  11.00000  0.05    0.31 
Q5    1   1.6221  0.4305  0.7760  11.00000  0.05    0.30 
Q6    1   0.3454  0.3000  0.1293  11.00000  0.05    0.30 
Q7    1   1.1659  0.2576  0.4189  11.00000  0.05    0.30 
Q8    1   0.6186  0.1747  0.6674  11.00000  0.05    0.30 
Q9    1   1.5080  0.3813  0.7069  11.00000  0.05    0.29 
Q10   1   1.1495  1.0612  0.3445  11.00000  0.05    0.27 
Q11   1   0.8273  0.2241  0.4112  11.00000  0.05    0.27 
Q12   1   1.0632  0.5374  0.2982  11.00000  0.05    0.27 
Q13   1   0.8772  0.7956  0.4592  11.00000  0.05    0.27 
Q14   1   0.2087  0.2793  0.4995  11.00000  0.05    0.26 
Q15   1   1.2726  0.2725  0.0649  11.00000  0.05    0.26 
Q16   1   1.0213  0.2287  0.6979  11.00000  0.05    0.26 
Q17   1   0.5966  0.1797  0.7358  11.00000  0.05    0.26 
Q18   1   0.4377  0.8369  0.1987  11.00000  0.05    0.26 
Q19   1   1.2606  0.2960  0.6677  11.00000  0.05    0.25 
Q20   1   0.7709  0.9809  0.4969  11.00000  0.05    0.25 
;
_shelx_res_checksum              26892
_shelx_hkl_file
; 
  -2   0   0  214.88   22.30 
  -2   0   0  215.18   22.20 
   2   0   0  205.08   22.40 
   2   0   0  233.98   22.20 
   2   0   0  226.98   22.30 
  -3   0   0  137.69   13.90 
   3   0   0  143.19   13.90 
   3   0   0  113.09   14.10 
   3   0   0  141.69   13.80 
  -4   0   0   58.49    5.60 
   4   0   0   40.20    6.30 
   4   0   0   46.70    5.40 
   4   0   0   49.30    5.80 
   4   0   0   56.09    5.50 
  -5   0   0  465.35   48.30 
   5   0   0  479.15   48.70 
   5   0   0  484.55   48.20 
  -6   0   0    8.90    2.10 
   6   0   0    3.00    2.40 
   6   0   0    9.40    1.70 
  -7   0   0   21.80    3.50 
   7   0   0   27.60    5.00 
   7   0   0   24.40    3.40 
  -8   0   0   20.70    3.70 
   8   0   0   22.40    3.60 
   8   0   0   25.70    5.00 
  -9   0   0   27.90    6.50 
   9   0   0   27.00    4.40 
   9   0   0   40.00    8.00 
 -10   0   0   13.10    4.10 
  10   0   0   19.00    4.90 
  10   0   0   12.20    3.00 
 -11   0   0   11.20    5.00 
  11   0   0    6.80    4.10 
  12   0   0    9.20    5.00 
  12   0   0   -1.00    3.30 
  13   0   0    6.20    3.90 
  13   0   0   18.70    6.30 
  13  -1   0   15.70    5.70 
  13  -1   0   -3.50    3.80 
  12  -1   0   -1.00    3.10 
  12  -1   0    7.40    5.10 
 -12   1   0   -5.40    5.50 
  11  -1   0    7.20    4.70 
  11  -1   0   -1.40    4.10 
  10  -1   0    4.40    2.30 
  10  -1   0    7.60    5.60 
 -10   1   0    1.00    4.60 
   9  -1   0   26.30    4.10 
   9  -1   0   22.50    6.60 
  -9   1   0   30.90    4.90 
   8  -1   0   30.60    3.90 
   8  -1   0   17.20    5.50 
  -8   1   0   32.00    4.10 
   7  -1   0    2.90    2.70 
   7  -1   0    7.00    1.80 
  -7   1   0   10.90    2.20 
   6  -1   0    1.30    1.10 
   6  -1   0   -2.70    2.30 
  -6   1   0    1.60    1.50 
   5  -1   0    0.90    1.10 
  -5   1   0    0.20    1.10 
   4  -1   0    1.70    1.00 
   4  -1   0    1.30    1.10 
  -4   1   0    1.70    1.10 
   3  -1   0  103.19   10.50 
   3  -1   0   95.09   10.90 
   3  -1   0  106.39   10.60 
  -3   1   0  102.69   10.50 
   2  -1   0   75.59    7.80 
   2  -1   0   76.99    8.00 
   2  -1   0   81.79    8.10 
  -2   1   0   73.69    7.80 
  -2   1   0   73.39    8.00 
   1  -1   0   30.10    3.10 
   1  -1   0   31.70    3.20 
  -1   1   0   27.60    3.10 
   0  -1   0    0.20    0.60 
   0   1   0    1.30    0.70 
  -1  -1   0   17.00    1.90 
  -1  -1   0   16.60    2.20 
  -1  -1   0   17.10    1.70 
  -1  -1   0   16.70    2.10 
  -1  -1   0   12.70    2.30 
   1   1   0   12.30    2.30 
  -2  -1   0   15.30    2.30 
  -2  -1   0   13.50    1.70 
   2   1   0   13.00    1.80 
   2   1   0   13.20    2.60 
   2   1   0   13.80    2.10 
   2   1   0   16.20    1.70 
  -3  -1   0    2.80    1.20 
   3   1   0   -0.80    1.80 
   3   1   0    1.90    1.50 
   3   1   0    2.10    0.70 
   3   1   0    2.50    1.00 
  -4  -1   0   -0.30    1.20 
   4   1   0    0.70    0.80 
   4   1   0   -2.40    1.90 
  -5  -1   0   15.20    2.60 
   5   1   0   17.30    3.40 
   5   1   0   16.00    2.40 
  -6  -1   0    0.00    1.70 
   6   1   0    1.50    1.10 
  -7  -1   0   26.70    3.80 
   7   1   0   19.20    4.10 
   7   1   0   27.20    3.50 
  -8  -1   0   40.30    6.40 
   8   1   0   27.10    6.60 
   8   1   0   33.90    4.60 
  -9  -1   0   60.49    7.60 
   9   1   0   55.49    7.10 
   9   1   0   65.69    9.20 
 -10  -1   0    0.00    3.60 
  10   1   0   -0.50    2.20 
  10   1   0    5.30    3.80 
 -11  -1   0   -2.90    4.40 
  11   1   0    8.30    4.40 
  11   1   0   -0.80    4.00 
 -12  -1   0   -3.20    6.10 
  12   1   0   -5.30    5.50 
  13  -2   0   14.60    4.20 
 -13   2   0    4.10    5.90 
  12  -2   0   11.70    5.30 
  12  -2   0    0.80    3.10 
  11  -2   0    2.00    2.70 
 -11   2   0   -1.50    4.60 
  10  -2   0    3.60    6.30 
  10  -2   0    0.30    2.40 
 -10   2   0    0.10    4.00 
   9  -2   0   43.20    5.40 
   9  -2   0   45.00    7.30 
  -9   2   0   39.10    5.80 
   8  -2   0    7.90    1.80 
   8  -2   0    2.40    3.60 
  -8   2   0   11.10    3.00 
   7  -2   0   38.30    6.10 
   7  -2   0   42.90    5.10 
  -7   2   0   44.20    5.10 
   6  -2   0    2.40    1.20 
  -6   2   0    1.50    1.60 
   5  -2   0    9.60    2.00 
   5  -2   0   10.10    2.40 
   5  -2   0    7.70    1.80 
  -5   2   0    9.40    2.00 
   4  -2   0   97.69    9.90 
   4  -2   0   85.39   10.30 
   4  -2   0   96.79   10.20 
  -4   2   0  102.19   10.00 
   3  -2   0  361.56   36.60 
   3  -2   0  356.26   36.40 
   3  -2   0  358.26   36.70 
  -3   2   0  368.26   36.50 
   2  -2   0 1288.87  125.79 
   2  -2   0 1269.97  125.89 
   2  -2   0 1344.27  125.69 
  -2   2   0 1225.58  125.79 
  -2   2   0 1126.09  125.69 
   1  -2   0  117.09   11.70 
  -1   2   0  109.79   11.70 
   0  -2   0  669.33   81.79 
   0  -2   0  876.71   81.89 
   0   2   0  890.01   81.89 
  -1  -2   0    5.80    1.40 
   1   2   0    3.90    1.60 
   1   2   0    5.60    1.70 
  -2  -2   0  454.35   46.80 
  -2  -2   0  462.55   46.50 
  -2  -2   0  460.25   46.40 
  -2  -2   0  450.35   46.80 
   2   2   0  475.35   46.90 
  -3  -2   0  124.99   13.10 
   3   2   0  121.39   13.30 
  -4  -2   0   11.40    2.40 
   4   2   0   12.00    2.70 
   4   2   0   11.80    1.70 
  -5  -2   0    0.90    1.70 
   5   2   0    1.70    1.00 
   5   2   0   -1.90    2.00 
  -6  -2   0    7.10    2.20 
   6   2   0    3.00    2.50 
   6   2   0    5.20    1.40 
  -7  -2   0   55.39    7.00 
   7   2   0   49.70    5.90 
   7   2   0   47.20    7.00 
  -8  -2   0   18.70    4.20 
   8   2   0   16.50    3.40 
   8   2   0   14.50    5.10 
  -9  -2   0   15.30    4.20 
   9   2   0   19.80    5.30 
   9   2   0   13.70    3.60 
 -10  -2   0    4.30    3.90 
  10   2   0    4.60    4.30 
 -11  -2   0    1.20    5.00 
  11   2   0   -3.20    5.00 
 -12  -2   0    6.60    6.60 
  12   2   0    8.20    6.00 
  14  -3   0    9.10    6.70 
  14  -3   0   -0.40    4.50 
  13  -3   0   10.10    6.20 
  13  -3   0   -2.20    3.60 
  11  -3   0   13.30    3.20 
  11  -3   0   34.10   10.10 
 -11   3   0    9.80    5.90 
  10  -3   0   45.40    6.40 
 -10   3   0   31.60    5.90 
   9  -3   0   52.59    7.90 
   9  -3   0   52.59    6.20 
  -9   3   0   45.60    6.50 
   8  -3   0   17.30    4.20 
   8  -3   0   14.40    3.30 
  -8   3   0   20.70    3.70 
   7  -3   0    1.00    2.60 
   7  -3   0    3.60    1.50 
  -7   3   0    4.60    2.10 
   6  -3   0   27.10    5.30 
   6  -3   0   52.79    5.50 
   6  -3   0   52.69    6.10 
  -6   3   0   54.69    5.50 
   5  -3   0    1.00    1.20 
   5  -3   0    2.30    2.00 
  -5   3   0    0.60    1.40 
   4  -3   0   54.39    5.80 
   4  -3   0   54.59    6.10 
   4  -3   0   57.59    6.10 
  -4   3   0   50.39    5.90 
   3  -3   0    7.50    1.70 
   3  -3   0   12.70    1.80 
   3  -3   0   10.70    2.10 
  -3   3   0    9.60    1.90 
   2  -3   0   61.49    6.90 
   2  -3   0   62.69    6.80 
   2  -3   0   65.69    6.70 
  -2   3   0   62.69    6.80 
   1  -3   0   45.10    5.20 
  -1   3   0   48.70    5.40 
   0  -3   0   22.70    2.90 
   0   3   0   23.30    3.20 
  -1  -3   0    1.20    1.60 
   1   3   0    1.10    1.50 
   1   3   0    1.00    1.50 
  -2  -3   0  136.29   13.60 
  -2  -3   0  132.19   14.00 
  -2  -3   0  116.09   13.40 
   2   3   0  144.49   14.30 
  -3  -3   0    1.80    1.10 
  -3  -3   0    0.50    1.60 
   3   3   0    0.00    1.50 
  -4  -3   0   99.69   11.60 
   4   3   0  113.29   12.00 
  -5  -3   0    9.50    2.40 
   5   3   0    5.60    2.50 
  -6  -3   0    1.30    2.90 
   6   3   0   -0.30    2.50 
  -7  -3   0   37.00    5.30 
   7   3   0   35.10    7.00 
  -8  -3   0   15.40    3.90 
   8   3   0   21.60    4.90 
  -9  -3   0   16.40    4.40 
   9   3   0   19.10    4.70 
 -10  -3   0    2.10    4.30 
  10   3   0    5.90    4.60 
 -11  -3   0    4.30    5.70 
  11   3   0   -0.40    5.30 
 -12  -3   0   -2.70    6.90 
  12   3   0    5.00    6.20 
  14  -4   0   55.69   11.80 
  11  -4   0    4.50    2.70 
 -11   4   0   10.40    4.40 
  10  -4   0    3.70    3.60 
 -10   4   0    6.20    3.10 
   9  -4   0    8.00    2.30 
   9  -4   0    9.90    4.00 
  -9   4   0   11.00    3.30 
   8  -4   0   28.30    4.10 
   8  -4   0   26.40    5.20 
  -8   4   0   27.10    4.30 
   7  -4   0   87.09    9.60 
   7  -4   0   90.59   10.00 
  -7   4   0   82.29    9.40 
   6  -4   0  732.63   71.99 
   6  -4   0  705.13   71.79 
   6  -4   0  710.13   71.49 
  -6   4   0  687.33   71.59 
   5  -4   0  396.76   41.20 
   5  -4   0  411.66   41.40 
   5  -4   0  403.46   41.00 
  -5   4   0  410.36   41.10 
   4  -4   0  208.18   23.00 
   4  -4   0  248.88   22.90 
   4  -4   0  188.48   23.10 
  -4   4   0  254.27   23.10 
   3  -4   0    7.90    1.70 
   3  -4   0    8.40    1.80 
  -3   4   0    7.60    1.90 
   2  -4   0 3900.31  373.06 
  -2   4   0 3525.35  373.06 
   1  -4   0 7917.71  783.92 
  -1   4   0 7693.53  783.92 
   0   4   0    7.80    2.30 
   1   4   0   17.60    2.80 
  -2  -4   0  159.98   17.50 
  -2  -4   0  157.48   17.00 
   2   4   0  177.68   17.70 
  -3  -4   0   41.70    5.40 
  -3  -4   0   40.20    4.70 
   3   4   0   43.60    5.50 
  -4  -4   0   44.60    5.90 
   4   4   0   46.10    6.20 
  -5  -4   0   17.20    3.90 
   5   4   0   14.90    3.60 
  -6  -4   0    3.60    2.40 
   6   4   0    1.70    3.30 
  -7  -4   0   11.80    3.00 
   7   4   0    7.80    3.60 
  -8  -4   0   11.70    3.60 
   8   4   0   13.70    4.00 
  -9  -4   0    6.40    3.50 
   9   4   0    0.80    4.20 
 -10  -4   0    3.60    5.00 
  10   4   0   -1.10    4.90 
 -11  -4   0   12.50    6.50 
  11   4   0    3.30    5.80 
  14  -5   0   50.39   12.50 
 -12   5   0   13.30    5.20 
  10  -5   0   84.99   11.80 
  10  -5   0  133.29   12.50 
 -10   5   0   90.69   11.40 
   9  -5   0    5.30    2.30 
   9  -5   0    6.90    3.40 
  -9   5   0    3.40    2.70 
   8  -5   0    1.10    1.80 
   8  -5   0    1.30    2.90 
  -8   5   0   -0.70    2.30 
   7  -5   0   47.80    6.40 
   7  -5   0   46.40    5.90 
  -7   5   0   48.50    5.80 
   6  -5   0   18.50    3.00 
   6  -5   0   20.70    3.10 
   6  -5   0   21.80    3.70 
  -6   5   0   15.90    3.00 
   5  -5   0  153.98   15.50 
   5  -5   0  139.19   15.30 
   5  -5   0  148.19   15.70 
  -5   5   0  151.38   15.50 
   4  -5   0    4.70    1.40 
   4  -5   0    4.50    1.50 
   4  -5   0    6.20    1.50 
  -4   5   0    6.10    1.90 
   3  -5   0   12.40    2.40 
   3  -5   0   11.60    2.30 
   3  -5   0   10.10    2.30 
  -3   5   0   13.80    2.30 
   2  -5   0    4.70    2.50 
  -2   5   0   20.50    2.70 
  -1   5   0   39.70    5.00 
   0   5   0    2.90    1.70 
   1   5   0    8.60    2.30 
  -2  -5   0   31.30    4.60 
  -2  -5   0   33.30    3.90 
  -3  -5   0    3.00    1.40 
  -3  -5   0    4.20    2.30 
   3   5   0    5.70    2.30 
  -4  -5   0   17.10    4.30 
  -4  -5   0   10.80    2.60 
   4   5   0   11.50    3.20 
  -5  -5   0   -0.70    2.20 
   5   5   0   -1.10    2.80 
  -6  -5   0   -1.80    2.40 
   6   5   0   -2.50    3.00 
  -7  -5   0    1.90    2.90 
   7   5   0    2.80    3.50 
  -8  -5   0   20.70    5.10 
   8   5   0   28.10    6.10 
  -9  -5   0    1.80    3.90 
   9   5   0    2.30    4.40 
 -10  -5   0    0.50    5.00 
  10   5   0    9.20    5.20 
 -11  -5   0   -6.00    8.30 
  12  -6   0   19.40    5.80 
  12  -6   0   71.69   12.90 
 -12   6   0   42.60    6.30 
  11  -6   0   12.10    3.20 
 -11   6   0   27.10    4.90 
  10  -6   0   53.19    7.70 
  10  -6   0   79.79    8.40 
 -10   6   0   60.09    8.00 
   9  -6   0   14.20    3.70 
   9  -6   0   18.30    4.70 
  -9   6   0   19.00    4.20 
   8  -6   0    5.90    2.40 
   8  -6   0    8.20    3.60 
  -8   6   0   12.00    3.00 
   7  -6   0   26.30    4.20 
   7  -6   0   25.80    4.80 
  -7   6   0   28.20    4.10 
   6  -6   0  115.89   12.30 
   6  -6   0  118.79   12.50 
  -6   6   0  110.19   12.20 
   5  -6   0   66.89    7.40 
   5  -6   0   64.09    7.20 
  -5   6   0   62.39    7.30 
   4  -6   0  161.88   17.10 
   4  -6   0  158.48   17.00 
  -4   6   0  167.08   17.10 
   3  -6   0  422.96   43.70 
   3  -6   0  429.46   43.70 
  -3   6   0  431.56   43.70 
  -2   6   0   16.10    3.00 
  -1   6   0    5.10    2.10 
   0   6   0    5.60    2.30 
   1   6   0   45.50    5.80 
  -2  -6   0    3.20    2.50 
  -2  -6   0    3.60    1.60 
  -3  -6   0    6.20    2.10 
  -3  -6   0    7.30    3.50 
  -4  -6   0    6.20    2.50 
  -4  -6   0    9.90    1.70 
   4   6   0    6.20    3.00 
  -5  -6   0  100.19   11.40 
   5   6   0  100.79   12.30 
  -6  -6   0   47.60    6.30 
   6   6   0   42.00    6.50 
  -7  -6   0   55.09    8.20 
   7   6   0   72.79    8.60 
  -8  -6   0   -0.90    3.70 
   8   6   0   -1.40    4.00 
  -9  -6   0   14.90    5.30 
 -10  -6   0    6.50    6.50 
  14  -7   0    0.50    3.90 
 -12   7   0   22.10    5.90 
  11  -7   0   46.10    6.90 
 -11   7   0   57.49    7.40 
  10  -7   0    8.50    2.80 
  10  -7   0    4.50    2.20 
 -10   7   0    8.60    3.60 
   9  -7   0   17.40    3.60 
   9  -7   0   15.20    3.90 
  -9   7   0   16.60    3.80 
   8  -7   0   12.90    3.70 
   8  -7   0   12.70    3.00 
  -8   7   0   17.80    3.60 
   7  -7   0   53.19    6.30 
   7  -7   0   43.80    6.30 
  -7   7   0   52.99    6.40 
   6  -7   0    9.40    2.20 
   6  -7   0    9.70    2.70 
  -6   7   0    9.90    2.70 
   5  -7   0   41.20    4.90 
   5  -7   0   34.10    4.90 
  -5   7   0   37.80    4.90 
   4  -7   0   10.70    2.70 
   4  -7   0   14.30    2.70 
  -4   7   0   12.10    2.90 
  -3   7   0    9.90    2.40 
  -2   7   0   31.80    4.50 
  -1   7   0   22.50    4.00 
   0   7   0    5.00    2.60 
   1   7   0    3.20    2.60 
  -2  -7   0   11.20    2.20 
  -2  -7   0   11.90    3.40 
  -3  -7   0   15.10    3.30 
  -3  -7   0   14.90    2.50 
  -4  -7   0   13.80    3.20 
  -4  -7   0    8.70    2.00 
  -5  -7   0   26.00    4.70 
  -6  -7   0    6.00    3.30 
  -7  -7   0   31.50    5.90 
  -8  -7   0    2.00    4.20 
  -9  -7   0    2.50    5.50 
  14  -8   0   -3.20    3.60 
  11  -8   0    5.30    2.60 
 -11   8   0   10.10    4.00 
  10  -8   0    1.70    3.20 
  10  -8   0    0.20    2.20 
 -10   8   0    3.80    3.60 
   9  -8   0   11.90    2.50 
   9  -8   0    8.80    3.50 
  -9   8   0   16.40    4.20 
   8  -8   0   58.39    7.50 
   8  -8   0   64.69    8.10 
  -8   8   0   59.39    7.60 
   7  -8   0  102.99   11.00 
   7  -8   0   96.09   11.30 
  -7   8   0  101.29   11.30 
   6  -8   0   43.50    5.60 
   6  -8   0   38.90    5.40 
  -6   8   0   45.80    5.70 
   5  -8   0  252.27   26.20 
   5  -8   0  250.87   26.10 
  -5   8   0  250.37   26.20 
   4  -8   0  129.49   14.20 
   4  -8   0  136.09   14.10 
  -4   8   0  126.29   14.10 
  -3   8   0  189.08   20.10 
  -2   8   0  688.03   70.29 
  -1   8   0   11.70    3.50 
   0   8   0    3.10    3.50 
   1   8   0   23.30    4.00 
  -2  -8   0    1.00    2.50 
  -2  -8   0   -0.70    1.60 
  -3  -8   0  226.68   23.20 
  -3  -8   0  222.28   24.00 
  -4  -8   0   29.30    4.00 
  -4  -8   0   28.90    4.90 
  -5  -8   0   18.90    4.70 
  -6  -8   0   -0.20    3.80 
  -7  -8   0   18.50    5.20 
  -8  -8   0    4.20    4.90 
  -9  -8   0    1.90    6.40 
  14  -9   0    4.20    3.70 
  13  -9   0    3.40    3.50 
  11  -9   0    5.40    2.70 
  11  -9   0    9.50    3.60 
 -11   9   0   12.40    4.50 
  10  -9   0    4.80    2.50 
 -10   9   0   14.20    4.30 
   9  -9   0   10.50    4.00 
   9  -9   0   25.50    4.10 
  -9   9   0   24.20    5.30 
   8  -9   0   13.60    3.50 
   8  -9   0   17.50    3.80 
  -8   9   0   17.20    4.00 
   7  -9   0    9.40    2.90 
   7  -9   0   11.40    2.70 
  -7   9   0   16.10    3.70 
   6  -9   0    2.20    1.90 
   6  -9   0    2.30    1.90 
  -6   9   0    3.80    2.90 
   5  -9   0    4.40    2.30 
   5  -9   0    4.30    1.90 
  -5   9   0    3.60    2.50 
   4  -9   0   14.20    3.60 
   4  -9   0   13.50    3.40 
  -4   9   0   16.70    3.30 
   3  -9   0    3.50    2.00 
  -3   9   0    3.80    2.90 
  -2   9   0    3.60    3.10 
  -1   9   0   -0.90    3.40 
   0   9   0    6.50    2.70 
  -1  -9   0   -0.20    2.80 
  -2  -9   0   -1.10    1.80 
  -2  -9   0    2.60    2.90 
  -3  -9   0    6.70    3.40 
  -3  -9   0    5.40    2.10 
  -4  -9   0    3.90    3.50 
  -5  -9   0    2.20    3.80 
  -6  -9   0   11.70    4.80 
  -7  -9   0   -1.00    4.80 
  -8  -9   0    6.00    6.20 
  14 -10   0   -4.90    3.90 
  13 -10   0    1.80    3.70 
  12 -10   0   21.90    5.40 
  11 -10   0    4.90    2.70 
 -11  10   0    3.50    4.60 
  10 -10   0   -0.60    2.50 
 -10  10   0    1.30    3.80 
   9 -10   0    1.60    2.40 
  -9  10   0    4.50    4.40 
   8 -10   0    0.80    2.20 
   8 -10   0    4.20    2.20 
  -8  10   0    3.60    3.50 
   7 -10   0   51.59    7.50 
   7 -10   0   53.69    6.70 
  -7  10   0   53.29    7.40 
   6 -10   0   55.29    7.10 
   6 -10   0   62.19    7.40 
  -6  10   0   52.09    7.40 
   5 -10   0    6.40    2.20 
   5 -10   0    1.80    2.50 
  -5  10   0    5.80    3.00 
   4 -10   0   -0.10    2.00 
   3 -10   0    1.10    2.10 
  -3  10   0    1.80    4.30 
  -2  10   0    2.30    3.50 
  -1  10   0    1.70    2.80 
   0  10   0    6.00    3.10 
  -1 -10   0   -3.00    2.00 
  -1 -10   0    3.60    3.30 
  -2 -10   0    1.90    3.40 
  -2 -10   0    5.50    2.20 
  -3 -10   0   10.50    4.00 
  -3 -10   0    5.30    2.40 
  -4 -10   0   10.10    4.30 
  -5 -10   0   34.70    7.00 
  -6 -10   0   29.90    7.60 
  -7 -10   0    1.00    6.10 
  13 -11   0    1.80    3.70 
  12 -11   0    7.40    3.50 
  11 -11   0    4.20    2.90 
 -11  11   0   12.40    8.50 
  10 -11   0    6.90    2.80 
 -10  11   0    9.60    5.50 
   9 -11   0    1.20    2.60 
  -9  11   0    3.70    4.80 
   8 -11   0   -1.10    2.40 
   8 -11   0    0.00    2.50 
  -8  11   0    3.00    4.30 
   7 -11   0   26.20    4.70 
   7 -11   0   25.30    5.00 
  -7  11   0   28.60    6.10 
   6 -11   0    8.70    3.50 
   6 -11   0    5.80    2.60 
  -6  11   0    8.80    4.80 
   5 -11   0    9.00    2.70 
   5 -11   0    4.60    2.90 
  -5  11   0    8.40    6.00 
   4 -11   0   -0.10    2.40 
  -4  11   0    2.30    4.40 
   3 -11   0    2.80    2.40 
  -3  11   0    6.10    3.50 
  -2  11   0    1.30    3.10 
  -1  11   0    1.20    3.20 
   0  11   0    7.70    3.60 
  -1 -11   0    0.30    2.30 
  -1 -11   0    4.10    3.80 
  -2 -11   0    0.10    2.40 
  -2 -11   0    2.00    3.90 
  -3 -11   0    2.60    4.40 
  -3 -11   0    4.40    2.70 
  -4 -11   0   17.70    5.70 
  -5 -11   0    7.60    6.00 
  -6 -11   0   -0.50    5.90 
  13 -12   0   16.50    4.70 
  12 -12   0    1.00    3.40 
  11 -12   0    1.90    3.10 
  10 -12   0    0.70    3.00 
 -10  12   0    6.60    6.40 
   9 -12   0    0.40    2.90 
  -9  12   0   -1.00    7.00 
   8 -12   0   16.20    3.70 
   8 -12   0   17.00    3.70 
  -8  12   0   31.80    7.80 
   7 -12   0    2.10    2.70 
   7 -12   0    0.50    2.70 
  -7  12   0    0.80    8.10 
   6 -12   0    0.00    2.80 
   6 -12   0    3.00    2.70 
  -6  12   0    2.10    5.00 
   5 -12   0    6.80    3.30 
   5 -12   0    0.00    3.80 
  -5  12   0    3.90    4.00 
   4 -12   0  133.39   14.80 
  -4  12   0  128.29   15.00 
   3 -12   0  384.56   39.30 
  -3  12   0  373.56   39.80 
   2 -12   0   -0.40    2.70 
  -2  12   0    6.60    3.60 
   1 -12   0   -3.10    2.80 
  -1  12   0    1.70    3.80 
   0 -12   0   -2.90    2.50 
   0 -12   0   -3.00    4.10 
  -1 -12   0    5.90    4.40 
  -1 -12   0   12.50    3.00 
  -2 -12   0   14.70    5.20 
  -2 -12   0   26.70    4.50 
  -3 -12   0   24.00    6.60 
  -3 -12   0   14.40    4.00 
  -4 -12   0   13.40    7.20 
  -5 -12   0   -3.10    6.20 
  13 -13   0   10.60    4.60 
  12 -13   0    1.90    3.60 
  11 -13   0    3.90    3.50 
  10 -13   0   -0.80    3.20 
 -10  13   0    2.70    7.40 
   9 -13   0   -2.80    3.40 
   9 -13   0   -1.00    3.10 
  -9  13   0   -7.10    6.40 
   8 -13   0    3.30    3.00 
   8 -13   0   -3.20    3.20 
  -8  13   0    0.10    5.40 
   7 -13   0    1.00    2.90 
   7 -13   0    0.30    3.00 
  -7  13   0    5.40    5.80 
   6 -13   0   -2.10    3.20 
   6 -13   0    3.50    2.90 
  -6  13   0    8.60    5.00 
   5 -13   0    4.90    4.50 
   5 -13   0   -0.10    3.50 
  -5  13   0    5.30    4.60 
   4 -13   0    2.60    4.50 
  -4  13   0    1.70    4.10 
   3 -13   0    6.30    3.80 
  -3  13   0    4.40    4.20 
   2 -13   0    6.90    3.30 
  -2  13   0   15.00    4.70 
   1 -13   0    0.10    4.70 
   1 -13   0   -2.60    3.20 
   0 -13   0   -0.90    4.80 
   0 -13   0   -2.90    3.00 
  -1 -13   0   -2.50    5.00 
  -1 -13   0    0.60    3.20 
  -2 -13   0    1.60    5.80 
  -2 -13   0    5.30    3.60 
  -3 -13   0    5.00    7.40 
  -4 -13   0    8.50    6.90 
  12 -14   0    4.00    4.10 
  11 -14   0    3.80    3.70 
  10 -14   0    1.10    3.60 
 -10  14   0   -1.10    6.90 
   9 -14   0    3.40    3.60 
  -9  14   0    5.70    6.40 
   8 -14   0    2.70    3.70 
   8 -14   0   -0.20    3.20 
  -8  14   0    3.50    6.50 
   7 -14   0    0.20    3.80 
   7 -14   0   -1.50    3.10 
  -7  14   0   10.30    5.90 
   6 -14   0   -0.30    3.20 
   6 -14   0    2.10    5.70 
  -6  14   0    2.60    5.70 
   5 -14   0    3.80    3.30 
   5 -14   0    3.20    6.70 
  -5  14   0    6.80    5.10 
   4 -14   0    5.80    4.10 
  -4  14   0    2.10    5.00 
   3 -14   0   -2.50    5.10 
  -3  14   0   -4.70    4.60 
   2 -14   0    5.70    3.50 
  -2  14   0    0.00    5.10 
   1 -14   0   -0.10    5.20 
   1 -14   0    3.60    3.40 
   1 -14   0    5.80    6.60 
   0 -14   0    2.20    3.40 
   0 -14   0    5.80    5.50 
  -1 -14   0    5.30    4.10 
  -1 -14   0    0.50    6.60 
  -2 -14   0    1.60    4.80 
  -2 -14   0    6.20    7.80 
  -3 -14   0   14.00    7.50 
  11 -15   0    0.00    4.00 
  10 -15   0    0.30    3.80 
   9 -15   0    4.80    4.00 
  -9  15   0   -3.70    7.20 
   8 -15   0   -3.30    6.50 
   8 -15   0    0.80    3.80 
  -8  15   0   -2.60    7.30 
   7 -15   0    1.30    3.60 
   7 -15   0    5.10    5.90 
  -7  15   0    7.20    6.90 
   6 -15   0   -0.50    3.50 
   6 -15   0    1.90    4.90 
  -6  15   0    1.90    6.60 
   5 -15   0    2.90    3.70 
   5 -15   0    3.80    5.10 
  -5  15   0    6.20    6.30 
   4 -15   0    8.00    4.00 
  -4  15   0   14.20    6.30 
   3 -15   0    4.90    4.90 
  -3  15   0    1.80    5.80 
   2 -15   0    4.50    6.10 
   2 -15   0    7.60    3.80 
   1 -15   0    0.90    6.40 
   1 -15   0   -1.60    3.90 
   0 -15   0   10.40    5.10 
   0 -15   0   10.40    8.30 
  -1 -15   0   10.40    4.80 
  -1 -15   0    1.50    7.20 
  10 -16   0    7.40    4.50 
   9 -16   0   17.20    4.90 
  -9  16   0   30.50    8.30 
   8 -16   0    1.40    4.20 
  -8  16   0   11.20    8.30 
   7 -16   0    2.50    5.20 
   7 -16   0    6.20    4.00 
  -7  16   0   -1.10    8.20 
   6 -16   0    2.30    5.20 
  -6  16   0    3.40    7.70 
   5 -16   0   93.89   12.30 
   5 -16   0  109.09   13.60 
  -5  16   0   89.39   14.70 
   4 -16   0   14.40    4.80 
  -4  16   0   24.60    8.60 
   3 -16   0    1.80    4.40 
   3 -16   0    1.80    7.00 
   2 -16   0   -0.70    7.60 
   2 -16   0    5.70    4.90 
   1 -16   0    6.00    4.80 
   1 -16   0    2.50    7.70 
  -8  17   0    4.30    9.00 
   7 -17   0   -2.20    4.80 
  -7  17   0   -0.40    9.40 
   6 -17   0   -4.90    4.80 
   6 -17   0   13.60    6.30 
  -6  17   0    7.60    9.80 
   5 -17   0    0.80    4.80 
   5 -17   0    1.30    6.00 
  -5  17   0   -6.30    9.40 
   4 -17   0    5.50    8.40 
   4 -17   0   -1.10    5.10 
   4 -17   1    8.40    5.00 
   4 -17   1    3.70    7.90 
   4 -17   1    4.80    6.10 
   4 -17   1    2.30    5.10 
   5 -17   1    7.60    4.90 
   5 -17   1    9.20    6.00 
   5 -17   1   -1.10    7.60 
   5 -17   1   -0.90    4.90 
   6 -17   1    3.60    4.50 
   6 -17   1   -7.20    5.80 
   6 -17   1   -3.00    7.70 
  -7  17  -1    3.30    8.90 
   7 -17   1   -1.10    5.70 
   7 -17   1   -2.80    4.60 
  -8  17  -1   -6.30    7.90 
   1 -16   1   -5.20    7.30 
   1 -16   1   -1.00    4.50 
   2 -16   1   -5.00    7.00 
   2 -16   1   -3.80    4.30 
   3 -16   1   10.60    4.70 
   3 -16   1   10.00    4.70 
   3 -16   1   17.50    7.20 
   4 -16   1   19.10    6.60 
   4 -16   1    8.90    4.30 
   4 -16   1   11.90    5.60 
   4 -16   1   16.60    4.60 
  -5  16  -1   62.79   11.80 
   5 -16   1   45.90    8.40 
   5 -16   1   46.80    9.40 
  -6  16  -1   11.30    8.20 
   6 -16   1    6.10    4.90 
   6 -16   1    1.10    4.10 
  -7  16  -1   10.60    7.70 
   7 -16   1    8.20    4.90 
   7 -16   1    2.80    4.10 
  -8  16  -1    0.30    7.30 
   8 -16   1   -4.40    6.90 
   8 -16   1    1.80    4.00 
   9 -16   1    0.10    4.20 
  10 -16   1   12.70    4.70 
  -1 -15   1   -1.20    7.00 
   0 -15   1   -0.10    4.60 
   0 -15   1    6.70    8.00 
   1 -15   1    4.70    3.60 
   1 -15   1   -3.70    5.70 
   2 -15   1   -1.50    5.20 
   2 -15   1    7.20    3.60 
   2 -15   1    2.10    5.60 
   3 -15   1   -0.90    3.90 
   3 -15   1    1.40    5.40 
   3 -15   1    4.60    3.50 
  -4  15  -1    1.50    6.10 
   4 -15   1    7.40    4.70 
   4 -15   1   -4.40    3.70 
  -5  15  -1    1.40    6.80 
   5 -15   1    4.30    3.60 
   5 -15   1    2.90    4.40 
  -6  15  -1    5.00    6.40 
   6 -15   1   -0.80    4.30 
   6 -15   1    3.00    3.40 
  -7  15  -1   -2.60    6.40 
   7 -15   1    2.80    3.60 
   7 -15   1    1.10    4.50 
  -8  15  -1    8.80    6.80 
   8 -15   1   -0.50    3.60 
   8 -15   1   -5.10    4.90 
  -9  15  -1    5.90    6.60 
   9 -15   1    1.50    3.80 
  10 -15   1    4.40    4.10 
  11 -15   1   -4.10    4.10 
  -3 -14   1   24.00    7.90 
  -2 -14   1   -0.90    7.10 
  -1 -14   1    5.80    3.70 
  -1 -14   1    1.10    5.80 
   0 -14   1    4.30    3.30 
   0 -14   1   -3.00    5.20 
   1 -14   1    0.20    3.10 
   1 -14   1    0.90    3.70 
   1 -14   1   -6.20    4.80 
   2 -14   1   14.30    5.10 
   2 -14   1   12.10    5.40 
   2 -14   1    9.70    3.30 
  -3  14  -1   10.70    4.90 
   3 -14   1   11.70    5.60 
  -4  14  -1   22.40    5.90 
   4 -14   1   15.80    4.30 
  -5  14  -1   27.20    6.50 
   5 -14   1   13.20    3.90 
   5 -14   1   16.40    5.50 
  -6  14  -1    3.80    5.80 
   6 -14   1    0.70    6.60 
   6 -14   1    6.40    3.10 
  -7  14  -1    2.70    6.40 
   7 -14   1   -0.70    3.10 
   7 -14   1   -0.20    5.10 
  -8  14  -1   -4.10    6.00 
   8 -14   1   -0.90    4.90 
   8 -14   1    2.10    3.20 
  -9  14  -1   -4.30    6.10 
   9 -14   1   -4.80    4.70 
   9 -14   1    0.90    3.40 
  10 -14   1    5.30    3.80 
  11 -14   1    1.50    3.70 
  12 -14   1   -1.70    4.00 
  -4 -13   1    0.60    6.60 
  -3 -13   1    7.60    6.80 
  -2 -13   1   -2.50    3.30 
  -2 -13   1    6.20    5.30 
  -1 -13   1    8.30    3.10 
  -1 -13   1    0.40    4.90 
   0 -13   1    3.00    4.60 
   0 -13   1    1.50    2.90 
   1 -13   1    1.40    2.70 
   1 -13   1    1.40    4.40 
  -2  13  -1    1.60    4.30 
   2 -13   1    7.70    4.30 
  -3  13  -1    2.50    4.20 
   3 -13   1    6.50    4.30 
  -4  13  -1    2.50    4.20 
   4 -13   1    0.70    5.10 
  -5  13  -1   -0.10    4.40 
   5 -13   1   -0.20    4.50 
   5 -13   1    2.00    3.00 
  -6  13  -1    4.50    5.30 
   6 -13   1   -0.40    2.90 
   6 -13   1   -2.40    3.50 
  -7  13  -1    5.20    5.50 
   7 -13   1    1.90    2.80 
   7 -13   1    1.20    3.10 
  -8  13  -1   -1.20    8.30 
   8 -13   1   -2.00    3.00 
  -9  13  -1   -5.10    7.70 
   9 -13   1   -2.40    3.60 
   9 -13   1   -1.00    3.00 
  10 -13   1   -4.30    4.20 
  10 -13   1    5.40    3.40 
  11 -13   1    7.00    3.50 
  12 -13   1    5.80    4.00 
  -5 -12   1   11.50    6.90 
  -4 -12   1   -1.80    5.70 
  -3 -12   1   -1.10    4.70 
  -2 -12   1    1.80    2.80 
  -2 -12   1    2.20    4.40 
  -1 -12   1    9.30    3.00 
  -1 -12   1   12.90    4.70 
   0 -12   1    0.70    2.50 
   0 -12   1    7.50    4.10 
   1 -12   1   20.10    3.90 
   1 -12   1   23.70    5.50 
  -2  12  -1    6.60    4.00 
  -3  12  -1  232.78   25.10 
  -4  12  -1  635.44   65.69 
   4 -12   1  651.13   66.09 
   4 -12   1  628.74   65.49 
  -5  12  -1    8.10    4.90 
   5 -12   1    3.60    3.10 
   5 -12   1    4.20    4.00 
  -6  12  -1    0.20    7.90 
   6 -12   1    0.50    2.50 
   6 -12   1   -2.90    2.70 
  -7  12  -1   -3.40    5.30 
   7 -12   1   -2.30    2.70 
   7 -12   1    1.40    2.60 
  -8  12  -1   59.69    9.50 
   8 -12   1   64.49    7.80 
   8 -12   1   54.49    7.80 
  -9  12  -1   40.10    7.60 
   9 -12   1   26.60    5.60 
   9 -12   1   32.30    5.70 
 -10  12  -1    2.30    5.70 
  10 -12   1    4.10    3.10 
  11 -12   1    1.30    3.30 
  12 -12   1   -0.40    3.50 
  13 -12   1    8.20    4.10 
  -6 -11   1    3.30    6.40 
  -5 -11   1    4.30    5.10 
  -4 -11   1    3.20    4.40 
  -3 -11   1   -2.40    4.10 
  -2 -11   1   -3.10    3.90 
  -2 -11   1    3.00    2.40 
  -1 -11   1   14.80    2.80 
  -1 -11   1   13.60    3.90 
   0 -11   1    1.10    2.20 
   0 -11   1    6.90    3.50 
  -1  11  -1   16.20    4.40 
  -2  11  -1   -3.60    3.10 
  -3  11  -1    9.30    4.10 
  -4  11  -1    6.90    5.80 
   4 -11   1    1.00    2.30 
   4 -11   1   -0.50    2.60 
  -5  11  -1   13.60    4.60 
   5 -11   1    7.50    3.10 
   5 -11   1    3.00    2.90 
  -6  11  -1   18.80    5.30 
   6 -11   1   20.30    5.00 
   6 -11   1   14.70    4.20 
  -7  11  -1   12.00    4.30 
   7 -11   1   11.30    2.80 
   7 -11   1    7.40    2.90 
  -8  11  -1    6.10    4.50 
   8 -11   1    0.70    2.40 
   8 -11   1   -2.60    2.50 
  -9  11  -1    8.90    4.50 
   9 -11   1    0.40    2.80 
   9 -11   1    6.10    2.70 
 -10  11  -1   18.90    4.90 
  10 -11   1   10.10    3.10 
  11 -11   1    7.70    3.10 
  12 -11   1    4.00    3.20 
  13 -11   1   -3.90    3.70 
  -7 -10   1    0.30    6.00 
  -6 -10   1   13.10    5.10 
  -5 -10   1   36.60    6.80 
  -4 -10   1    0.80    3.80 
  -3 -10   1    1.30    3.70 
  -3 -10   1   -1.40    2.30 
  -2 -10   1    0.20    3.30 
  -2 -10   1    2.20    2.00 
  -1 -10   1    1.10    2.00 
  -1 -10   1    3.00    3.10 
   0 -10   1   38.90    6.10 
   0 -10   1   44.20    5.10 
  -1  10  -1    5.00    3.10 
  -2  10  -1   19.90    6.10 
  -3  10  -1   10.50    3.70 
  -4  10  -1   12.10    3.50 
   4 -10   1   12.30    3.40 
  -5  10  -1   12.70    3.50 
   5 -10   1    7.70    2.50 
   5 -10   1    8.70    2.80 
  -6  10  -1    9.00    3.60 
   6 -10   1    6.10    2.50 
   6 -10   1    5.70    2.60 
  -7  10  -1    1.20    3.30 
   7 -10   1   -1.60    2.10 
   7 -10   1    0.40    2.30 
  -8  10  -1   -0.20    3.80 
   8 -10   1   -2.00    2.30 
   8 -10   1    0.90    2.20 
  -9  10  -1   32.90    6.00 
   9 -10   1   20.90    4.40 
   9 -10   1   27.60    4.80 
 -10  10  -1    3.60    4.00 
  10 -10   1   -1.00    2.80 
  11 -10   1   18.90    5.10 
  12 -10   1    0.60    3.10 
  12 -10   1   10.70    5.70 
  13 -10   1    3.00    3.70 
  -8  -9   1    1.60    5.60 
  -7  -9   1    1.00    5.10 
  -6  -9   1    7.10    4.30 
  -5  -9   1    1.00    3.60 
  -4  -9   1    3.70    3.40 
  -3  -9   1   37.10    5.70 
  -3  -9   1   39.20    4.80 
  -2  -9   1   20.60    4.00 
  -2  -9   1   15.10    2.60 
  -1  -9   1    8.70    2.90 
  -1  -9   1   11.20    2.10 
   0   9  -1    8.10    2.80 
  -1   9  -1    5.00    3.90 
  -2   9  -1    0.80    2.60 
  -3   9  -1    1.40    2.60 
  -4   9  -1   13.60    3.30 
   4  -9   1   11.70    3.00 
  -5   9  -1    4.50    3.00 
   5  -9   1    0.00    1.90 
   5  -9   1   -0.10    2.00 
   6  -9   1   -0.60    1.90 
   6  -9   1    1.60    2.00 
  -7   9  -1   23.60    4.80 
   7  -9   1   21.60    4.10 
   7  -9   1   22.50    4.80 
  -8   9  -1    6.70    3.30 
   8  -9   1    4.50    2.10 
   8  -9   1    4.10    2.60 
  -9   9  -1   18.50    4.90 
   9  -9   1   15.40    3.00 
 -10   9  -1   -0.90    3.90 
  10  -9   1   -0.70    2.40 
  11  -9   1   11.90    4.30 
  11  -9   1   19.00    4.50 
  12  -9   1   44.50    9.60 
  14  -9   1    3.00    4.10 
  -9  -8   1   -1.60    5.90 
  -8  -8   1    3.70    4.70 
  -7  -8   1   14.10    4.80 
  -6  -8   1    1.30    3.50 
  -5  -8   1   -0.60    3.10 
  -4  -8   1   81.09    9.60 
  -3  -8   1   22.10    4.10 
  -3  -8   1   20.70    3.10 
  -2  -8   1  181.18   19.60 
  -2  -8   1  180.68   18.80 
  -1  -8   1   30.50    4.00 
  -1  -8   1   32.40    5.00 
   0   8  -1   -0.20    2.80 
  -1   8  -1    3.00    2.50 
  -2   8  -1 4316.57  434.26 
  -3   8  -1  875.91   88.89 
  -4   8  -1    3.00    2.30 
   4  -8   1    3.10    1.90 
  -5   8  -1    1.60    2.30 
   5  -8   1    0.90    1.70 
   5  -8   1    1.10    1.70 
  -6   8  -1   11.30    3.10 
   6  -8   1    8.90    2.40 
   6  -8   1    8.10    2.40 
  -7   8  -1  216.68   21.90 
   7  -8   1  200.58   22.10 
   7  -8   1  206.38   21.80 
  -8   8  -1    8.50    3.60 
   8  -8   1    6.70    3.00 
   8  -8   1    6.50    3.30 
  -9   8  -1   75.09    8.60 
   9  -8   1   71.69    8.10 
   9  -8   1   57.99    8.90 
 -10   8  -1    8.60    3.90 
  10  -8   1    2.90    2.40 
 -11   8  -1   28.00    4.60 
  11  -8   1   27.00    5.70 
  11  -8   1   14.00    3.50 
  14  -8   1    0.50    3.80 
 -10  -7   1   -5.80    5.90 
  -9  -7   1    6.10    5.10 
  -8  -7   1   -1.90    3.90 
  -7  -7   1    4.50    3.80 
  -6  -7   1    9.00    3.30 
  -5  -7   1   -2.20    2.70 
  -4  -7   1   32.30    4.80 
  -3  -7   1   12.30    2.40 
  -3  -7   1   14.60    3.10 
  -2  -7   1   18.50    4.30 
  -2  -7   1   21.10    3.20 
  -1  -7   1    7.50    2.70 
  -1  -7   1    4.50    1.70 
   0   7  -1    1.70    2.20 
  -1   7  -1    1.50    2.20 
  -2   7  -1   17.00    3.20 
  -3   7  -1   14.90    2.90 
   3  -7   1   10.50    2.70 
  -4   7  -1   35.70    4.60 
   4  -7   1   35.00    4.60 
  -5   7  -1    9.00    2.40 
   5  -7   1    8.80    1.90 
   5  -7   1    7.90    2.10 
  -6   7  -1    0.80    1.90 
   6  -7   1    2.80    1.80 
   6  -7   1    1.20    1.50 
  -7   7  -1   17.80    3.70 
   7  -7   1   15.00    3.70 
   7  -7   1   19.60    3.70 
  -8   7  -1    9.00    2.80 
   8  -7   1    4.30    2.40 
   8  -7   1    6.90    3.50 
  -9   7  -1    4.80    3.40 
   9  -7   1    3.20    3.70 
   9  -7   1    3.90    2.10 
 -10   7  -1   35.00    5.50 
  10  -7   1   28.50    4.90 
  10  -7   1   32.20    5.50 
 -11   7  -1    9.30    3.40 
  11  -7   1    5.30    2.60 
 -10  -6   1   -5.70    5.30 
  -9  -6   1    4.70    4.30 
  -8  -6   1   18.10    4.90 
  -7  -6   1   43.50    6.30 
  -6  -6   1   24.50    4.50 
  -5  -6   1   18.30    3.60 
  -4  -6   1   14.90    3.20 
  -3  -6   1    3.80    3.10 
  -3  -6   1    4.10    1.90 
  -2  -6   1    1.80    2.20 
  -2  -6   1    2.30    1.40 
  -1  -6   1   12.00    3.10 
  -1  -6   1   12.10    2.10 
   0   6  -1    6.80    2.50 
  -1   6  -1    1.20    2.00 
  -2   6  -1    4.30    1.80 
  -3   6  -1   28.50    3.90 
   3  -6   1   28.80    3.90 
  -4   6  -1  129.89   13.90 
   4  -6   1  132.19   14.00 
   4  -6   1  132.09   13.70 
  -5   6  -1   55.19    6.40 
   5  -6   1   56.39    6.00 
   5  -6   1   54.29    6.30 
   5  -6   1   52.69    6.40 
  -6   6  -1   20.40    3.30 
   6  -6   1   19.20    3.30 
   6  -6   1   20.00    3.20 
   6  -6   1   10.40    2.50 
  -7   6  -1    7.20    2.60 
   7  -6   1    5.00    2.50 
   7  -6   1    5.00    2.00 
  -8   6  -1    0.80    2.40 
   8  -6   1    2.30    2.20 
   8  -6   1    4.00    3.60 
  -9   6  -1   19.50    4.40 
   9  -6   1   25.30    5.30 
   9  -6   1   15.30    4.20 
 -10   6  -1   68.89    7.90 
  10  -6   1   46.80    7.50 
  10  -6   1   70.19    8.20 
 -11   6  -1   51.09    6.40 
  11  -6   1   42.70    6.50 
 -11  -5   1    7.70    7.60 
 -10  -5   1    1.30    4.40 
  -9  -5   1    3.50    3.80 
   8   5  -1    3.10    3.60 
  -8  -5   1   -0.10    3.20 
   7   5  -1   28.40    5.80 
  -7  -5   1   28.30    4.70 
   6   5  -1   13.10    4.40 
  -6  -5   1   18.40    3.50 
   5   5  -1   10.30    3.20 
  -5  -5   1   10.30    2.40 
  -4  -5   1    4.70    3.10 
  -3  -5   1    6.70    1.60 
  -3  -5   1    6.80    2.40 
  -2  -5   1    2.20    2.00 
  -2  -5   1    2.40    1.20 
  -1  -5   1   26.20    2.90 
  -1  -5   1   19.30    3.50 
   0   5  -1    4.40    1.90 
  -1   5  -1   65.89    7.50 
  -2   5  -1   16.70    2.80 
   2  -5   1   16.60    2.40 
  -3   5  -1   11.10    2.30 
   3  -5   1    9.50    2.00 
   3  -5   1    9.80    2.20 
  -4   5  -1    1.50    1.50 
   4  -5   1   -0.10    1.10 
   4  -5   1    1.50    1.30 
   4  -5   1   -0.20    1.10 
  -5   5  -1   42.90    4.90 
   5  -5   1   45.50    5.10 
   5  -5   1   37.00    4.70 
   5  -5   1   45.60    5.20 
  -6   5  -1    4.40    1.80 
   6  -5   1    3.20    1.70 
   6  -5   1    4.20    2.10 
  -7   5  -1   11.20    2.50 
   7  -5   1    6.70    2.20 
   7  -5   1    8.80    3.30 
  -8   5  -1    3.20    2.20 
   8  -5   1    5.30    3.20 
   8  -5   1    5.30    2.10 
  -9   5  -1   49.30    6.10 
   9  -5   1   45.90    6.80 
   9  -5   1   44.50    6.30 
 -10   5  -1   15.40    4.30 
  10  -5   1   25.60    6.30 
 -11   5  -1   29.60    4.80 
  11  -5   1   13.90    3.50 
 -12   5  -1   21.10    5.20 
 -11  -4   1   10.00    6.00 
  10   4  -1    3.40    4.90 
 -10  -4   1    2.20    4.20 
   9   4  -1   10.40    4.20 
  -9  -4   1    3.00    3.50 
   8   4  -1   13.30    4.00 
  -8  -4   1    8.90    3.30 
   7   4  -1    5.10    3.50 
  -7  -4   1    3.50    2.40 
   6   4  -1   11.50    3.60 
  -6  -4   1   12.20    3.20 
   5   4  -1    6.70    2.80 
  -5  -4   1    7.60    3.10 
   4   4  -1  360.96   37.30 
  -4  -4   1  354.46   37.00 
   3   4  -1  150.48   15.70 
  -3  -4   1  137.89   15.40 
  -2  -4   1   40.80    5.10 
  -2  -4   1   39.60    4.50 
  -1  -4   1   92.39    9.70 
  -1  -4   1   92.49   10.10 
   0   4  -1   -0.70    1.50 
   0  -4   1   -0.60    1.70 
   1  -4   1 9999.00 1003.90 
  -2   4  -1  170.58   17.60 
   2  -4   1  171.48   17.50 
   2  -4   1  169.48   17.80 
   3  -4   1 1161.58  127.19 
   3  -4   1 1363.76  126.99 
  -4   4  -1  108.09   11.20 
   4  -4   1  111.09   11.10 
   4  -4   1  103.79   11.60 
   4  -4   1  110.29   11.50 
  -5   4  -1    3.80    1.50 
   5  -4   1    0.10    1.20 
   5  -4   1    2.40    1.70 
  -6   4  -1   14.30    2.50 
   6  -4   1   16.20    2.70 
   6  -4   1    9.20    2.10 
   6  -4   1   15.20    3.90 
  -7   4  -1    2.90    2.00 
   7  -4   1    5.70    2.90 
   7  -4   1    2.80    1.70 
  -8   4  -1   33.80    4.80 
   8  -4   1   31.40    5.70 
   8  -4   1   37.10    4.70 
  -9   4  -1    2.50    2.90 
   9  -4   1    3.50    2.00 
   9  -4   1    8.70    3.80 
 -10   4  -1   16.30    3.90 
  10  -4   1    9.40    4.40 
 -11   4  -1   22.90    5.20 
  11  -4   1   23.50    4.60 
  14  -4   1   14.70    7.80 
  14  -4   1   -4.60    4.50 
  12   3  -1    4.30    5.70 
 -12  -3   1    0.30    6.60 
  11   3  -1    0.40    5.10 
 -11  -3   1   -3.80    5.10 
  10   3  -1    5.00    4.40 
 -10  -3   1    3.90    3.80 
   9   3  -1   15.90    4.50 
  -9  -3   1   15.30    4.10 
   8   3  -1   42.10    6.70 
  -8  -3   1   30.90    5.20 
   7   3  -1   10.60    3.60 
  -7  -3   1    7.10    2.70 
   6   3  -1    9.80    3.00 
  -6  -3   1   11.50    3.30 
   5   3  -1   25.70    4.20 
  -5  -3   1   21.50    3.70 
   4   3  -1    1.00    2.10 
  -4  -3   1    6.30    2.00 
   3   3  -1    4.00    1.70 
  -3  -3   1    3.30    1.70 
  -2  -3   1   95.49   10.30 
  -2  -3   1   94.59    9.90 
  -1  -3   1    3.60    1.60 
  -1  -3   1    2.70    1.00 
  -1  -3   1    3.50    1.50 
   0   3  -1   74.59    8.00 
   0  -3   1   71.99    7.80 
  -1   3  -1   42.80    4.90 
   1  -3   1   42.90    4.70 
  -2   3  -1    5.70    1.30 
   2  -3   1    4.30    1.30 
   2  -3   1    5.00    1.20 
  -3   3  -1   25.90    3.40 
   3  -3   1   30.70    3.40 
   3  -3   1   33.00    3.70 
  -4   3  -1   17.70    2.50 
   4  -3   1   18.80    2.30 
   4  -3   1   19.90    2.90 
   4  -3   1   22.30    3.10 
  -5   3  -1   13.40    2.10 
   5  -3   1    8.20    1.70 
   5  -3   1   15.30    3.50 
   5  -3   1    9.60    2.30 
  -6   3  -1    1.00    1.60 
   6  -3   1    0.30    1.30 
   6  -3   1    2.70    2.60 
  -7   3  -1    4.00    2.00 
   7  -3   1    1.30    2.40 
   7  -3   1   -0.80    1.40 
  -8   3  -1   58.99    7.00 
   8  -3   1   48.90    8.00 
   8  -3   1   69.29    7.00 
  -9   3  -1    1.60    2.70 
   9  -3   1   -5.00    4.20 
   9  -3   1   -2.10    1.90 
  10  -3   1    6.80    6.40 
  10  -3   1    1.90    2.70 
  11  -3   1   30.90    7.80 
  12  -3   1   32.00    9.20 
  13  -3   1   -1.50    3.60 
  13  -3   1    9.20    6.50 
  12   2  -1   16.90    6.10 
 -12  -2   1    6.90    6.40 
  11   2  -1    2.80    4.80 
 -11  -2   1    0.00    4.60 
  10   2  -1    9.00    4.30 
 -10  -2   1    5.20    3.70 
   9   2  -1    3.00    3.70 
  -9  -2   1   -1.40    2.80 
   8   2  -1  129.29   14.20 
   8   2  -1  139.99   16.10 
  -8  -2   1  135.69   14.80 
   7   2  -1    1.90    2.60 
   7   2  -1    1.40    1.40 
  -7  -2   1    2.40    3.10 
   6   2  -1   21.20    2.90 
   6   2  -1   18.80    4.00 
  -6  -2   1   24.20    3.40 
   5   2  -1    2.70    2.10 
   5   2  -1    2.60    1.10 
  -5  -2   1    2.90    1.60 
   4   2  -1    4.40    1.80 
  -4  -2   1    4.70    1.80 
   3   2  -1    5.70    1.90 
  -3  -2   1    5.80    1.80 
   2   2  -1  725.23   70.99 
   2   2  -1  712.93   70.49 
   2   2  -1  683.53   70.79 
  -2  -2   1  677.03   70.79 
   1   2  -1  424.56   42.40 
  -1  -2   1  416.46   42.40 
  -1  -2   1  413.16   42.10 
   0  -2   1  850.91   88.79 
   0  -2   1  901.61   88.69 
   0  -2   1  894.41   88.89 
  -1   2  -1  358.46   40.20 
  -1   2  -1  409.16   40.10 
   1  -2   1  412.56   40.20 
   1  -2   1  408.36   40.00 
  -2   2  -1   46.20    5.20 
   2  -2   1   47.70    5.20 
   2  -2   1   56.99    5.50 
  -3   2  -1  343.97   36.60 
   3  -2   1  357.26   36.90 
   3  -2   1  377.86   37.00 
   3  -2   1  374.56   36.60 
  -4   2  -1    7.90    1.60 
   4  -2   1    5.70    1.40 
   4  -2   1   13.00    3.20 
   4  -2   1    6.50    1.60 
  -5   2  -1   69.89    7.40 
   5  -2   1   69.49    7.60 
   5  -2   1   71.19    8.10 
   5  -2   1   66.59    7.40 
  -6   2  -1    8.80    2.10 
   6  -2   1    9.40    2.20 
   6  -2   1    9.10    2.80 
  -7   2  -1  182.68   18.00 
   7  -2   1  170.28   18.10 
   7  -2   1  166.08   18.60 
  -8   2  -1  130.29   13.80 
   8  -2   1  130.19   13.80 
   8  -2   1  128.59   14.70 
  -9   2  -1  117.19   13.20 
   9  -2   1  109.59   13.00 
   9  -2   1  137.39   14.50 
 -10   2  -1   -4.20    3.50 
  10  -2   1    3.50    6.70 
  10  -2   1    1.70    2.60 
 -11   2  -1   12.90    7.00 
  11  -2   1   43.80    7.70 
  12  -2   1   34.80    9.00 
  13  -2   1   40.30   10.50 
  13   1  -1    8.20    6.50 
  12   1  -1    4.10    5.40 
 -12  -1   1   -2.10    5.80 
  11   1  -1    6.50    3.90 
  11   1  -1    7.50    4.60 
 -11  -1   1    4.80    4.60 
  10   1  -1    0.80    2.30 
  10   1  -1    4.40    3.90 
 -10  -1   1   -0.40    3.20 
   9   1  -1    4.60    4.70 
   9   1  -1    1.90    1.90 
  -9  -1   1    5.90    2.80 
   8   1  -1   37.40    4.20 
   8   1  -1   24.60    5.40 
  -8  -1   1   25.60    5.80 
   7   1  -1   -0.90    2.60 
   7   1  -1    3.60    1.40 
  -7  -1   1    3.40    2.10 
   6   1  -1    0.20    1.20 
  -6  -1   1    0.40    1.50 
   5   1  -1    2.00    1.10 
   5   1  -1    1.90    1.90 
  -5  -1   1    2.50    1.50 
   4   1  -1   -1.10    1.60 
   4   1  -1    0.20    0.80 
  -4  -1   1    0.30    1.10 
   3   1  -1   26.40    2.90 
   3   1  -1   25.10    3.30 
   3   1  -1   22.90    3.60 
  -3  -1   1   26.00    3.30 
   2   1  -1   61.19    6.20 
   2   1  -1   58.19    6.70 
   2   1  -1   59.49    6.40 
  -2  -1   1   59.79    6.50 
   1   1  -1   22.70    2.60 
  -1  -1   1   19.40    2.60 
  -1  -1   1   22.40    2.60 
   0   1  -1    0.90    0.50 
   0  -1   1    3.00    0.70 
   1  -1   1  148.19   15.10 
  -2   1  -1  107.29   11.30 
   2  -1   1  108.49   11.50 
   2  -1   1  121.49   11.70 
   2  -1   1  108.89   11.40 
  -3   1  -1   30.40    3.50 
   3  -1   1   27.80    4.40 
   3  -1   1   34.00    3.50 
   3  -1   1   31.30    3.70 
  -4   1  -1    7.80    1.60 
   4  -1   1    6.50    1.80 
   4  -1   1    9.50    2.60 
   4  -1   1   10.30    2.00 
   4  -1   1    8.30    1.30 
  -5   1  -1   95.49    9.90 
   5  -1   1   89.89    9.70 
   5  -1   1   86.69   10.00 
   5  -1   1   97.19    9.90 
   5  -1   1   97.29   10.50 
  -6   1  -1    6.80    1.90 
   6  -1   1    8.10    2.90 
   6  -1   1    8.80    1.70 
  -7   1  -1   78.69    7.80 
   7  -1   1   69.89    7.80 
   7  -1   1   62.39    8.90 
  -8   1  -1   11.30    3.00 
   8  -1   1    3.50    3.70 
   8  -1   1    9.30    2.00 
  -9   1  -1   26.80    4.90 
   9  -1   1   23.30    4.40 
   9  -1   1   37.80    6.90 
 -10   1  -1   -3.50    5.50 
  10  -1   1   12.70    5.10 
  10  -1   1    0.60    2.40 
  11  -1   1    2.70    4.40 
  12  -1   1    4.70    5.50 
  12  -1   1   -1.40    3.40 
  13  -1   1    9.00    6.30 
  13  -1   1    3.40    3.90 
  13   0  -1    8.20    4.10 
 -13   0   1   -2.30    7.20 
  12   0  -1    2.90    3.30 
  12   0  -1    1.10    5.00 
 -12   0   1   -1.40    5.60 
  11   0  -1   -2.10    4.00 
  11   0  -1    6.70    4.20 
  10   0  -1   70.19    9.30 
  10   0  -1   55.49    7.30 
 -10   0   1   50.49    7.60 
   9   0  -1   36.00    4.40 
   9   0  -1   21.80    6.70 
  -9   0   1   27.80    5.90 
   8   0  -1    0.50    1.50 
  -8   0   1    0.60    2.20 
   7   0  -1    1.40    2.30 
   7   0  -1    1.00    1.30 
  -7   0   1    0.60    1.80 
   6   0  -1   17.80    3.40 
   6   0  -1   14.80    2.40 
  -6   0   1   14.70    2.50 
   5   0  -1  222.88   22.80 
   5   0  -1  218.38   22.20 
  -5   0   1  210.48   22.30 
   4   0  -1   15.60    3.70 
  -4   0   1   28.50    3.00 
   3   0  -1 1556.74  151.08 
   3   0  -1 1478.85  151.18 
   3   0  -1 1494.85  150.98 
  -3   0   1 1476.65  151.08 
   2   0  -1   24.60    3.10 
   2   0  -1   27.00    2.90 
   2   0  -1   26.80    2.80 
  -2   0   1   28.00    3.00 
  -2   0   1   19.30    3.10 
   0   0  -1   -0.20    0.20 
   0   0  -1    0.50    0.20 
   0   0   1    0.10    0.30 
   0   0   1    0.00    0.20 
  -1   0  -1  349.96   55.79 
  -1   0  -1  610.04   55.79 
   1   0   1  628.64   55.79 
   1   0   1  627.94   55.89 
  -2   0  -1  911.71   92.09 
  -2   0  -1  941.71   92.09 
  -2   0  -1  908.11   91.89 
   2   0   1  960.50   91.99 
   2   0   1  850.91   92.19 
  -3   0  -1   70.79    7.30 
   3   0   1   58.19    7.70 
   3   0   1   73.59    7.20 
  -4   0  -1   66.19    7.10 
   4   0   1   60.89    7.70 
   4   0   1   67.69    7.00 
  -5   0  -1  745.83   75.49 
   5   0   1  770.02   75.39 
   5   0   1  724.73   75.89 
  -6   0  -1   23.90    3.50 
   6   0   1   24.20    3.40 
   6   0   1   29.20    5.00 
  -7   0  -1   21.10    3.20 
   7   0   1   18.60    3.10 
   7   0   1   17.40    3.90 
  -8   0  -1    1.30    2.40 
   8   0   1    0.10    1.70 
  -9   0  -1   11.70    5.20 
   9   0   1   15.90    5.70 
   9   0   1    9.80    2.60 
 -10   0  -1    1.90    3.80 
  10   0   1   -1.00    2.30 
  10   0   1    3.80    4.20 
 -11   0  -1    4.20    4.60 
  11   0   1   -2.70    3.90 
  11   0   1    7.10    4.90 
 -12   0  -1   -0.10    5.70 
  12   0   1    7.40    3.70 
  12   0   1   11.60    5.70 
  13   0   1   -6.60    5.20 
  13   0   1    8.20    6.10 
  13  -1  -1    0.70    3.70 
  13  -1  -1    9.20    5.70 
  12  -1  -1    2.10    3.00 
  12  -1  -1    6.20    4.60 
  11  -1  -1    7.00    4.70 
 -11   1   1   -1.60    4.30 
  10  -1  -1   32.00    9.20 
  10  -1  -1   23.80    4.80 
 -10   1   1   32.00    5.70 
   9  -1  -1   85.79   10.50 
   9  -1  -1   79.19    9.10 
  -9   1   1   79.99    9.80 
   8  -1  -1    0.90    1.40 
   8  -1  -1   -4.20    3.20 
  -8   1   1    1.70    2.30 
   7  -1  -1   15.30    2.50 
   7  -1  -1   11.90    3.30 
  -7   1   1   13.10    2.60 
   6  -1  -1    0.40    1.20 
  -6   1   1   -0.60    1.40 
   5  -1  -1    0.40    1.00 
  -5   1   1    1.70    1.30 
   4  -1  -1   -1.40    1.70 
   4  -1  -1    2.70    1.00 
   4  -1  -1    1.50    1.10 
   3  -1  -1  135.09   13.00 
   3  -1  -1  103.09   13.20 
   3  -1  -1  133.69   13.10 
  -3   1   1  135.89   13.10 
   2  -1  -1   45.60    7.60 
   2  -1  -1   76.59    7.70 
   2  -1  -1   85.09    7.60 
  -2   1   1   86.79    7.70 
  -2   1   1   71.69    7.60 
   1  -1  -1   52.09    8.60 
   1  -1  -1   97.09    8.60 
  -1   1   1  103.79    8.70 
   0  -1  -1    3.70    1.10 
   0  -1  -1    6.00    0.70 
   0   1   1    7.40    1.30 
   0   1   1    8.20    1.30 
  -1  -1  -1    7.20    1.40 
   1   1   1    2.00    1.70 
   1   1   1    5.60    1.60 
  -2  -1  -1   14.40    2.00 
  -2  -1  -1   11.60    1.70 
  -2  -1  -1   10.40    1.50 
  -2  -1  -1   12.10    2.20 
   2   1   1   13.30    1.50 
   2   1   1    5.80    2.50 
  -3  -1  -1   25.80    3.20 
  -3  -1  -1   22.60    3.30 
  -3  -1  -1   27.30    2.70 
   3   1   1   25.30    2.70 
   3   1   1   13.00    3.80 
  -4  -1  -1   14.50    2.50 
   4   1   1   15.50    3.00 
   4   1   1   14.80    2.10 
  -5  -1  -1  116.89   12.60 
   5   1   1  118.99   13.10 
   5   1   1  120.19   12.30 
  -6  -1  -1    7.30    2.00 
   6   1   1    4.70    2.90 
   6   1   1    8.40    2.00 
  -7  -1  -1   38.00    4.60 
   7   1   1   20.10    6.00 
   7   1   1   38.90    4.30 
  -8  -1  -1   35.70    6.00 
   8   1   1   28.40    4.30 
   8   1   1   22.40    6.50 
  -9  -1  -1   21.20    4.70 
   9   1   1   24.30    6.30 
   9   1   1   20.60    3.90 
 -10  -1  -1   10.00    4.30 
  10   1   1    8.60    3.10 
  10   1   1    9.50    4.50 
 -11  -1  -1   -4.50    4.70 
  11   1   1    8.10    4.80 
  11   1   1    2.70    3.50 
 -12  -1  -1   -4.70    6.20 
  12   1   1   -2.60    4.10 
  12   1   1    2.90    5.30 
  14  -2  -1    9.60    6.80 
  14  -2  -1   -0.90    4.40 
  13  -2  -1   -1.10    3.60 
  13  -2  -1   11.10    5.30 
  12  -2  -1    8.80    3.10 
 -12   2   1    3.40    5.30 
  11  -2  -1   27.90    5.00 
  11  -2  -1   45.90   10.90 
 -11   2   1   20.60    6.00 
  10  -2  -1  101.49   12.10 
  10  -2  -1  127.29   13.50 
 -10   2   1   96.69   13.30 
   9  -2  -1   12.60    4.40 
   9  -2  -1   13.90    3.10 
  -9   2   1   13.00    3.60 
   8  -2  -1   13.40    2.80 
   8  -2  -1   11.60    3.50 
  -8   2   1   14.30    3.10 
   7  -2  -1   41.30    4.90 
   7  -2  -1   36.60    6.00 
  -7   2   1   44.50    5.10 
   6  -2  -1    1.40    1.30 
   6  -2  -1   -1.80    2.10 
  -6   2   1    3.20    1.80 
   5  -2  -1  143.09   14.40 
   5  -2  -1  127.49   14.50 
  -5   2   1  140.99   14.20 
   4  -2  -1  310.07   31.90 
   4  -2  -1  307.17   31.80 
   4  -2  -1  314.67   31.70 
  -4   2   1  320.67   31.80 
   3  -2  -1  240.48   25.50 
   3  -2  -1  255.67   25.40 
   3  -2  -1  256.77   25.40 
  -3   2   1  236.58   25.30 
  -3   2   1  259.77   25.40 
   2  -2  -1  794.92   75.69 
   2  -2  -1  908.21   75.89 
   2  -2  -1  716.63   75.89 
  -2   2   1  561.54   75.69 
  -2   2   1  784.92   75.89 
   1  -2  -1  380.66   38.00 
   1  -2  -1  373.66   38.00 
   1  -2  -1  391.06   38.10 
  -1   2   1  351.86   38.00 
  -1   2   1  384.76   38.10 
   0  -2  -1  431.36   45.20 
   0  -2  -1  446.56   44.90 
   0   2   1  470.95   45.20 
   0   2   1  438.16   45.30 
  -1  -2  -1    0.60    1.20 
   1   2   1    0.90    1.40 
  -2  -2  -1   28.90    4.20 
   2   2   1   37.00    4.10 
   2   2   1   29.80    4.60 
  -3  -2  -1  396.76   40.60 
  -3  -2  -1  400.56   41.00 
   3   2   1  369.36   40.40 
   3   2   1  438.16   41.20 
  -4  -2  -1   66.89    7.40 
   4   2   1   67.69    6.80 
   4   2   1   60.49    7.70 
  -5  -2  -1    8.70    2.00 
   5   2   1    4.70    2.50 
   5   2   1    7.00    1.40 
  -6  -2  -1   63.79    7.30 
   6   2   1   61.69    6.80 
   6   2   1   58.79    7.80 
  -7  -2  -1   18.40    4.70 
   7   2   1   19.70    5.70 
   7   2   1   23.60    3.40 
  -8  -2  -1   91.09   10.60 
   8   2   1   97.89   11.50 
   8   2   1   86.19    9.90 
  -9  -2  -1   10.80    3.80 
   9   2   1    9.90    2.70 
   9   2   1   14.60    4.20 
 -10  -2  -1   14.30    5.00 
  10   2   1   21.10    6.10 
 -11  -2  -1    2.60    5.20 
  11   2   1   12.30    5.10 
 -12  -2  -1   -0.90    6.70 
  12   2   1    4.20    6.10 
  14  -3  -1   -1.90    4.10 
  14  -3  -1   12.00    6.20 
  13  -3  -1   -2.50    3.20 
  13  -3  -1   15.10    5.90 
  12  -3  -1    7.20    5.50 
  12  -3  -1    1.50    2.70 
 -12   3   1   -4.40    4.70 
  11  -3  -1    7.50    6.20 
  11  -3  -1    1.90    2.50 
 -11   3   1   -6.70    5.20 
  10  -3  -1  224.38   21.70 
  10  -3  -1  189.28   21.00 
 -10   3   1  173.48   20.80 
   9  -3  -1   -1.80    3.30 
   9  -3  -1   -1.90    1.70 
  -9   3   1    1.60    3.00 
   8  -3  -1   27.00    4.90 
   8  -3  -1   21.90    3.50 
  -8   3   1   22.10    4.00 
   7  -3  -1    0.70    1.50 
  -7   3   1    3.00    2.10 
   6  -3  -1   15.50    3.40 
   6  -3  -1   15.10    2.70 
  -6   3   1   17.90    2.90 
   5  -3  -1    6.10    1.80 
   5  -3  -1   10.50    2.60 
   5  -3  -1   10.10    2.10 
  -5   3   1   10.00    2.20 
   4  -3  -1  163.38   16.90 
   4  -3  -1  168.18   16.90 
   4  -3  -1  163.98   17.10 
  -4   3   1  164.48   17.00 
   3  -3  -1    8.90    1.90 
   3  -3  -1   13.30    1.70 
   3  -3  -1   11.30    2.20 
  -3   3   1   13.20    1.70 
  -3   3   1    8.60    2.20 
   2  -3  -1    5.50    1.60 
   2  -3  -1    9.70    1.80 
  -2   3   1   10.90    2.10 
   1  -3  -1   36.50    4.40 
   1  -3  -1   37.30    4.20 
  -1   3   1   40.20    4.60 
   0  -3  -1   44.50    5.30 
   0   3   1   49.60    5.60 
   0   3   1   49.20    5.60 
   1   3   1   26.90    3.80 
   1   3   1   29.40    3.80 
   2   3   1  105.39   11.30 
   2   3   1  104.69   11.50 
  -3  -3  -1    3.00    1.10 
  -3  -3  -1    0.70    1.70 
   3   3   1   -0.20    1.80 
  -4  -3  -1  181.68   18.90 
  -4  -3  -1  180.38   19.50 
   4   3   1  190.18   19.70 
  -5  -3  -1    0.50    2.10 
   5   3   1   -1.50    2.20 
  -6  -3  -1   34.10    5.60 
   6   3   1   29.90    5.50 
  -7  -3  -1   10.90    3.10 
   7   3   1    6.20    4.20 
  -8  -3  -1   10.50    3.50 
   8   3   1   14.20    3.80 
  -9  -3  -1    2.20    3.40 
   9   3   1   -1.60    3.80 
 -10  -3  -1    0.60    4.60 
  10   3   1    7.00    4.80 
 -11  -3  -1    0.80    5.80 
  11   3   1   12.20    5.60 
  14  -4  -1   18.30    6.20 
  14  -4  -1    2.00    4.20 
  13  -4  -1    0.10    3.00 
  13  -4  -1   16.80    6.00 
 -13   4   1    1.60    4.50 
  12  -4  -1    2.80    2.60 
  12  -4  -1   -0.60    7.60 
 -12   4   1   -1.00    4.70 
  11  -4  -1   27.30    5.30 
  11  -4  -1   49.30    8.60 
 -11   4   1   34.00    7.40 
  10  -4  -1   34.40    6.60 
  10  -4  -1   17.00    4.70 
 -10   4   1   24.10    4.90 
   9  -4  -1   11.80    4.10 
   9  -4  -1    9.10    2.20 
  -9   4   1   12.80    3.40 
   8  -4  -1   -0.80    3.10 
   8  -4  -1    3.20    1.90 
  -8   4   1    2.30    2.40 
   7  -4  -1   20.00    3.70 
   7  -4  -1   20.00    3.30 
  -7   4   1   15.90    3.30 
   6  -4  -1   53.29    6.30 
   6  -4  -1   59.29    6.70 
  -6   4   1   54.69    6.30 
   5  -4  -1   12.30    2.30 
   5  -4  -1    9.50    2.20 
   5  -4  -1   10.80    2.50 
  -5   4   1    9.40    2.30 
   4  -4  -1 1178.88  112.79 
   4  -4  -1 1123.29  112.99 
   4  -4  -1 1106.39  112.69 
  -4   4   1 1071.89  112.89 
   3  -4  -1  234.98   24.20 
   3  -4  -1  231.78   24.40 
   3  -4  -1  253.37   24.30 
  -3   4   1  228.68   24.30 
   2  -4  -1   56.59    6.00 
   2  -4  -1   51.29    6.00 
  -2   4   1   51.89    6.10 
   1  -4  -1 7526.25  756.02 
   0   4   1  151.38   16.00 
   1   4   1   65.59    7.80 
   1   4   1   71.29    7.80 
   2   4   1    2.30    1.70 
   2   4   1    0.30    1.60 
  -3  -4  -1   10.90    2.90 
  -3  -4  -1    9.60    1.90 
   3   4   1   10.60    2.70 
  -4  -4  -1  396.06   40.60 
  -4  -4  -1  385.76   41.20 
   4   4   1  416.26   41.50 
  -5  -4  -1   28.50    5.40 
   5   4   1   29.70    5.10 
  -6  -4  -1   51.69    7.00 
   6   4   1   56.79    8.10 
  -7  -4  -1    3.30    2.90 
   7   4   1    3.30    3.20 
  -8  -4  -1    3.00    3.30 
   8   4   1    5.10    3.70 
  -9  -4  -1    4.00    3.90 
   9   4   1    5.10    4.40 
 -10  -4  -1    0.30    5.30 
  10   4   1    8.80    5.30 
 -11  -4  -1    5.50    7.10 
  11   4   1   13.80    6.40 
  14  -5  -1   58.09   12.20 
  13  -5  -1   46.90   10.30 
 -13   5   1   22.60    6.50 
 -12   5   1    9.50    6.30 
  11  -5  -1   41.10    6.10 
 -11   5   1   52.99    7.20 
  10  -5  -1   10.40    3.10 
 -10   5   1   19.80    4.00 
   9  -5  -1    3.90    3.50 
   9  -5  -1    1.10    2.60 
  -9   5   1    2.10    2.60 
   8  -5  -1    3.60    2.50 
   8  -5  -1    2.20    2.00 
  -8   5   1   -0.30    2.20 
   7  -5  -1   34.90    4.90 
   7  -5  -1   29.20    4.10 
  -7   5   1   28.10    4.30 
   6  -5  -1    7.20    1.80 
   6  -5  -1    9.10    2.30 
  -6   5   1   13.00    2.50 
   5  -5  -1  188.98   19.40 
   5  -5  -1  183.18   19.70 
  -5   5   1  194.58   19.60 
   4  -5  -1    0.90    1.00 
   4  -5  -1    2.50    1.20 
  -4   5   1    1.60    1.50 
   3  -5  -1    9.00    2.00 
   3  -5  -1   13.70    2.30 
  -3   5   1    8.90    2.40 
   2  -5  -1    1.80    1.20 
  -2   5   1    3.70    1.80 
  -1   5   1  109.49   11.90 
   0   5   1   13.10    2.80 
   1   5   1    8.50    2.30 
   1   5   1    9.40    2.50 
   2   5   1   25.40    4.10 
   2   5   1   25.90    4.00 
  -3  -5  -1    9.50    3.10 
  -3  -5  -1   10.50    2.10 
   3   5   1    9.00    2.70 
  -4  -5  -1   54.29    5.90 
  -4  -5  -1   47.00    7.00 
   4   5   1   45.30    6.60 
  -5  -5  -1    0.30    2.40 
   5   5   1   -2.70    3.20 
  -6  -5  -1   14.10    3.40 
   6   5   1   12.10    3.60 
  -7  -5  -1   21.80    4.80 
   7   5   1   24.40    5.20 
  -8  -5  -1    5.70    3.80 
   8   5   1    3.70    3.90 
  -9  -5  -1    2.40    4.30 
   9   5   1    2.50    4.70 
 -10  -5  -1    1.60    5.60 
  10   5   1   -0.60    5.60 
  14  -6  -1    9.10    3.70 
 -13   6   1   30.00    6.60 
 -12   6   1    7.40    5.40 
  11  -6  -1    3.00    2.30 
 -11   6   1   11.30    3.90 
   9  -6  -1    3.30    3.00 
   9  -6  -1    2.60    2.50 
  -9   6   1    2.70    2.80 
   8  -6  -1    2.50    2.00 
   8  -6  -1    6.60    2.90 
  -8   6   1    7.20    2.80 
   7  -6  -1    1.10    2.40 
   7  -6  -1   -0.70    1.60 
  -7   6   1    1.20    2.10 
   6  -6  -1  605.74   60.09 
   6  -6  -1  592.04   59.59 
  -6   6   1  569.64   59.79 
   5  -6  -1   49.50    5.50 
   5  -6  -1   47.60    5.70 
  -5   6   1   46.90    5.80 
   4  -6  -1    9.20    2.10 
   4  -6  -1    7.70    1.80 
  -4   6   1   10.40    2.50 
   3  -6  -1   -1.10    1.20 
  -3   6   1   -0.20    1.60 
   2  -6  -1   13.10    2.50 
  -2   6   1   12.70    2.80 
  -1   6   1  169.78   18.10 
   0   6   1   10.10    2.90 
   1   6   1    6.10    2.50 
   2   6   1   71.39    8.40 
   2   6   1   64.49    8.10 
  -3  -6  -1   33.40    5.30 
  -3  -6  -1   29.60    4.10 
   3   6   1   31.20    5.30 
  -4  -6  -1    7.60    2.50 
  -4  -6  -1    2.80    1.60 
   4   6   1    3.10    3.10 
  -5  -6  -1    6.30    2.90 
   5   6   1    1.80    2.80 
  -6  -6  -1  247.98   26.90 
   6   6   1  256.67   27.30 
  -7  -6  -1   12.00    4.10 
   7   6   1    8.50    4.00 
  -8  -6  -1    2.30    4.10 
   8   6   1   -0.80    4.30 
  -9  -6  -1    2.50    4.70 
   9   6   1    4.90    5.40 
 -10  -6  -1   10.10    8.00 
  14  -7  -1    2.80    3.70 
  13  -7  -1   72.49   16.20 
 -12   7   1   32.40    8.10 
  11  -7  -1   21.70    4.90 
 -11   7   1   38.70    6.40 
  10  -7  -1    9.20    2.50 
 -10   7   1   16.20    4.40 
   9  -7  -1   13.80    3.30 
   9  -7  -1   11.50    2.50 
  -9   7   1   15.90    3.90 
   8  -7  -1    0.40    2.00 
   8  -7  -1    4.40    2.70 
  -8   7   1    3.00    2.80 
   7  -7  -1   11.30    2.60 
   7  -7  -1   12.60    3.20 
  -7   7   1   15.40    3.10 
   6  -7  -1   12.30    2.90 
   6  -7  -1   12.30    2.70 
  -6   7   1   15.10    3.30 
   5  -7  -1   35.20    4.40 
   5  -7  -1   32.70    4.50 
  -5   7   1   33.40    4.70 
   4  -7  -1   29.90    4.30 
   4  -7  -1   30.70    4.30 
  -4   7   1   35.80    4.40 
   3  -7  -1   29.60    4.20 
  -3   7   1   32.60    4.40 
   2  -7  -1    3.00    1.50 
  -2   7   1    1.50    2.10 
  -1   7   1    6.80    2.90 
   0   7   1   60.09    7.60 
   1   7   1   -0.90    3.00 
   2   7   1    3.00    2.30 
  -3  -7  -1    5.90    1.70 
  -3  -7  -1    0.90    2.50 
  -4  -7  -1    1.40    1.70 
  -4  -7  -1    1.70    2.80 
   4   7   1    4.60    2.70 
  -5  -7  -1   13.70    3.40 
   5   7   1    6.60    3.10 
  -6  -7  -1   33.60    5.70 
   6   7   1   29.40    5.60 
  -7  -7  -1   -1.30    4.10 
   7   7   1    3.20    4.00 
  -8  -7  -1    3.50    4.90 
  -9  -7  -1    2.00    6.20 
  14  -8  -1    7.80    3.80 
  13  -8  -1   -1.10    3.00 
 -11   8   1   20.70    5.50 
  10  -8  -1    3.00    2.80 
  10  -8  -1   -0.60    2.20 
 -10   8   1    2.30    3.70 
   9  -8  -1    7.40    2.20 
  -9   8   1    8.90    3.20 
   8  -8  -1    6.80    2.60 
   8  -8  -1   12.10    3.00 
  -8   8   1   17.70    3.90 
   7  -8  -1  114.19   12.30 
   7  -8  -1  120.09   12.80 
  -7   8   1  109.99   12.70 
   6  -8  -1   23.10    3.70 
   6  -8  -1   21.20    3.80 
  -6   8   1   23.50    4.30 
   5  -8  -1   29.80    4.20 
   5  -8  -1   32.20    4.40 
  -5   8   1   27.20    4.50 
   4  -8  -1   21.70    3.90 
   4  -8  -1   22.20    3.80 
  -4   8   1   27.40    4.00 
   3  -8  -1 1209.08  117.89 
  -3   8   1 1122.49  118.19 
   2  -8  -1 1268.77  126.89 
  -2   8   1 1245.18  127.39 
  -1   8   1   10.10    3.60 
   0   8   1  100.79   12.00 
   1   8   1   -0.30    2.40 
  -2  -8  -1   -0.30    2.70 
  -3  -8  -1   33.40    5.30 
  -3  -8  -1   35.90    4.30 
  -4  -8  -1   -0.60    3.20 
  -4  -8  -1   -1.80    2.00 
  -5  -8  -1   58.29    8.00 
  -6  -8  -1   14.90    4.60 
  -7  -8  -1    0.00    4.40 
  -8  -8  -1    6.30    6.20 
  14  -9  -1   -2.40    3.50 
  13  -9  -1   -1.00    3.10 
  12  -9  -1    4.60    3.20 
 -12   9   1   18.90    5.20 
  11  -9  -1   12.50    3.00 
 -11   9   1   15.70    5.20 
  10  -9  -1   -1.10    3.10 
  10  -9  -1    2.20    2.20 
 -10   9   1    9.90    4.70 
   9  -9  -1   11.70    2.60 
  -9   9   1   17.50    4.70 
   8  -9  -1   -0.70    2.00 
   8  -9  -1    2.90    2.10 
  -8   9   1    0.30    3.50 
   7  -9  -1   12.00    3.00 
   7  -9  -1   10.20    2.90 
  -7   9   1   13.40    3.40 
   6  -9  -1    3.30    2.00 
   6  -9  -1    1.60    1.90 
  -6   9   1    2.80    2.60 
   5  -9  -1    4.60    2.00 
   5  -9  -1    3.00    2.10 
  -5   9   1    2.60    2.80 
   4  -9  -1   17.50    3.50 
  -4   9   1   19.10    3.90 
   3  -9  -1    5.00    2.00 
  -3   9   1    9.30    3.30 
   2  -9  -1    3.00    2.10 
  -2   9   1    5.00    3.80 
   1  -9  -1   -0.20    1.80 
  -1   9   1    2.70    2.60 
   0   9   1    3.00    2.60 
   1   9   1   -1.00    2.80 
  -2  -9  -1    6.60    2.00 
  -2  -9  -1    6.10    3.20 
  -3  -9  -1    1.30    3.30 
  -3  -9  -1    3.60    2.10 
  -4  -9  -1   -0.20    3.70 
  -4  -9  -1    1.40    2.30 
  -5  -9  -1    5.00    4.10 
  -6  -9  -1   -2.30    4.50 
  -7  -9  -1    5.30    5.60 
  -8  -9  -1    2.70    6.70 
  14 -10  -1    0.00    3.80 
  13 -10  -1   16.50    4.10 
  12 -10  -1    6.20    3.20 
  11 -10  -1   -1.10    2.70 
 -11  10   1    7.70    5.70 
  10 -10  -1    3.60    2.50 
 -10  10   1    7.30    5.00 
   9 -10  -1   20.70    4.40 
  -9  10   1   26.10    6.20 
   8 -10  -1    3.50    2.30 
   8 -10  -1   -2.50    2.10 
  -8  10   1   -0.60    3.60 
   7 -10  -1   63.79    7.90 
   7 -10  -1   71.89    8.90 
  -7  10   1   68.99    8.80 
   6 -10  -1   14.20    3.40 
   6 -10  -1   10.90    2.90 
  -6  10   1   12.40    3.90 
   5 -10  -1   32.00    5.00 
   5 -10  -1   27.70    4.90 
  -5  10   1   35.00    5.60 
   4 -10  -1   24.10    4.30 
  -4  10   1   24.80    5.90 
   3 -10  -1   31.20    4.80 
  -3  10   1   30.00    6.30 
   2 -10  -1   35.10    5.00 
  -2  10   1   27.60    5.20 
   1 -10  -1    3.10    2.10 
  -1  10   1    2.30    2.80 
   0 -10  -1   78.39    9.00 
   0  10   1   80.09    9.50 
   1  10   1    1.40    3.20 
  -2 -10  -1    6.30    3.60 
  -2 -10  -1    5.50    2.30 
  -3 -10  -1    1.00    3.80 
  -3 -10  -1    8.60    2.40 
  -4 -10  -1   75.49    8.70 
  -4 -10  -1   73.19   10.10 
  -5 -10  -1   85.19   11.60 
  -6 -10  -1   -5.50    5.60 
  -7 -10  -1    6.80    6.40 
  13 -11  -1   -1.60    3.60 
  12 -11  -1    9.70    3.50 
  11 -11  -1    2.20    2.80 
 -11  11   1    8.20    6.40 
 -10  11   1   18.60    7.50 
   9 -11  -1   -1.30    2.50 
  -9  11   1    2.30    6.30 
   8 -11  -1    2.30    2.50 
   8 -11  -1   -2.90    2.40 
  -8  11   1   -2.70    5.40 
   7 -11  -1   14.80    3.50 
   7 -11  -1   23.20    4.60 
  -7  11   1   25.10    6.90 
   6 -11  -1   19.20    4.20 
   6 -11  -1   18.00    3.60 
  -6  11   1   22.70    7.80 
   5 -11  -1    8.00    3.30 
   5 -11  -1    4.70    2.60 
  -5  11   1    9.20    4.80 
   4 -11  -1    5.30    2.50 
  -4  11   1    0.20    3.70 
   3 -11  -1    8.80    2.90 
  -3  11   1   12.70    3.70 
   2 -11  -1    1.90    2.40 
  -2  11   1    0.70    3.20 
   1 -11  -1    3.20    2.40 
  -1  11   1   -1.70    3.30 
   0 -11  -1    2.30    2.50 
   0  11   1    6.00    3.60 
  -1 -11  -1   -0.10    2.30 
  -1 -11  -1    2.00    3.90 
  -1 -11  -1    2.20    3.20 
  -2 -11  -1    3.80    2.80 
  -2 -11  -1    0.60    4.30 
  -3 -11  -1    5.70    4.70 
  -3 -11  -1    3.00    2.90 
  -4 -11  -1   12.60    3.60 
  -4 -11  -1   10.40    5.40 
  -5 -11  -1    1.00    6.60 
  -6 -11  -1   19.40    7.50 
  13 -12  -1    2.20    4.30 
  12 -12  -1   13.80    3.90 
  11 -12  -1   -2.60    3.10 
 -11  12   1    3.50    7.20 
  10 -12  -1    2.40    2.90 
 -10  12   1    1.10    7.90 
   9 -12  -1   23.10    5.00 
   9 -12  -1   17.30    3.80 
  -9  12   1   27.70    7.60 
   8 -12  -1   25.80    5.00 
   8 -12  -1   14.40    3.60 
  -8  12   1   20.50    6.50 
   7 -12  -1    1.70    2.60 
   7 -12  -1    2.90    2.80 
  -7  12   1   -1.30    4.70 
   6 -12  -1    6.20    3.50 
   6 -12  -1    7.80    3.00 
  -6  12   1   12.30    4.80 
   5 -12  -1   -4.00    3.20 
   5 -12  -1   -4.20    3.40 
  -5  12   1    0.20    4.00 
   4 -12  -1  140.69   15.50 
  -4  12   1  136.29   15.80 
   3 -12  -1    5.40    2.70 
  -3  12   1    8.00    4.00 
   2 -12  -1   -2.20    2.70 
  -2  12   1   -0.60    3.80 
   1 -12  -1    0.30    2.80 
  -1  12   1    5.00    3.80 
   0 -12  -1    2.70    2.90 
   0  12   1    1.70    4.00 
  -1 -12  -1   -3.60    4.50 
  -1 -12  -1   -1.50    2.80 
  -2 -12  -1    3.00    4.90 
  -2 -12  -1    7.30    3.20 
  -3 -12  -1    4.40    3.50 
  -3 -12  -1    3.30    5.40 
  -4 -12  -1    0.20    7.00 
  -5 -12  -1   -2.80    6.70 
  13 -13  -1   -2.80    4.20 
  12 -13  -1   11.50    4.00 
  11 -13  -1    2.00    3.40 
 -11  13   1    6.10    8.90 
  10 -13  -1    2.30    3.10 
 -10  13   1   -1.90    6.20 
   9 -13  -1   -0.30    3.00 
  -9  13   1    4.10    5.90 
   8 -13  -1   -1.00    3.10 
   8 -13  -1    1.40    3.00 
  -8  13   1    1.30    5.40 
   7 -13  -1    2.10    2.90 
   7 -13  -1    1.90    3.20 
  -7  13   1    1.30    5.30 
   6 -13  -1    1.40    3.30 
   6 -13  -1   -0.20    3.00 
  -6  13   1    2.20    4.80 
   5 -13  -1   -2.50    4.70 
   5 -13  -1   -0.70    3.40 
  -5  13   1    4.30    4.40 
   4 -13  -1   10.40    4.40 
  -4  13   1   17.10    5.10 
   3 -13  -1    2.50    3.00 
  -3  13   1    7.90    4.50 
   2 -13  -1    4.70    3.20 
  -2  13   1    9.90    4.30 
   1 -13  -1   -3.00    3.10 
  -1  13   1    4.10    4.50 
   0 -13  -1    3.00    4.90 
   0 -13  -1   -2.60    3.00 
  -1 -13  -1   -3.60    3.40 
  -1 -13  -1    1.30    5.40 
  -2 -13  -1    2.20    5.80 
  -2 -13  -1   -2.50    3.50 
  -3 -13  -1   11.40    5.00 
  -3 -13  -1   -0.70    7.10 
  -4 -13  -1    2.10    7.00 
  12 -14  -1   -0.80    4.10 
  11 -14  -1    0.60    3.60 
  10 -14  -1    0.80    3.40 
 -10  14   1   -1.00    6.60 
   9 -14  -1    1.40    3.30 
  -9  14   1    4.00    6.90 
   8 -14  -1   -0.50    3.30 
   8 -14  -1    2.70    4.30 
  -8  14   1    3.90    6.70 
   7 -14  -1    4.60    3.70 
   7 -14  -1    0.50    3.30 
  -7  14   1    8.40    6.50 
   6 -14  -1    4.60    4.40 
   6 -14  -1    5.40    3.30 
  -6  14   1    5.30    6.00 
   5 -14  -1   -1.40    6.70 
  -5  14   1    5.00    5.30 
   4 -14  -1    1.20    5.80 
  -4  14   1    2.00    4.80 
   3 -14  -1    2.20    3.80 
  -3  14   1    2.70    4.90 
   2 -14  -1   11.10    3.90 
  -2  14   1   14.60    5.50 
   1 -14  -1    3.40    5.70 
  -1  14   1    9.60    5.40 
   0 -14  -1    0.70    5.80 
   0 -14  -1   -6.80    3.60 
  -1 -14  -1    6.20    7.20 
  -1 -14  -1   -5.40    4.30 
  -2 -14  -1   -5.60    6.80 
  -2 -14  -1    4.40    4.30 
  11 -15  -1    1.20    4.00 
  10 -15  -1   -1.20    3.80 
 -10  15   1   -4.10    7.10 
   9 -15  -1   -1.20    3.70 
  -9  15   1    3.30    8.20 
   8 -15  -1    0.10    3.70 
  -8  15   1   -0.40    7.60 
   7 -15  -1   -3.80    5.70 
   7 -15  -1   -1.70    3.70 
  -7  15   1    2.50    6.60 
   6 -15  -1    1.00    3.70 
   6 -15  -1    6.90    6.00 
  -6  15   1    3.60    6.80 
   5 -15  -1   -0.10    4.90 
   5 -15  -1   -1.70    3.60 
  -5  15   1   -0.30    6.30 
   4 -15  -1    8.40    4.40 
  -4  15   1   13.30    5.90 
   3 -15  -1   -2.30    5.70 
  -3  15   1   -0.20    5.90 
  -2  15   1   -5.70    5.80 
   1 -15  -1    2.40    7.10 
   1 -15  -1    5.70    4.60 
   0 -15  -1    0.90    7.20 
   0 -15  -1    5.90    4.90 
  -1 -15  -1    0.10    4.80 
  -1 -15  -1   -0.50    7.50 
  10 -16  -1    0.20    4.20 
   9 -16  -1    2.20    4.10 
  -9  16   1    3.60    8.80 
   8 -16  -1   -0.80    4.10 
  -8  16   1    3.20    8.70 
   7 -16  -1    5.10    4.20 
  -7  16   1    7.00    8.40 
   6 -16  -1   -1.70    5.30 
   6 -16  -1   -2.90    4.30 
  -6  16   1   -8.40    8.10 
   5 -16  -1   10.40    4.60 
   5 -16  -1   12.60    5.60 
  -5  16   1    9.40    7.70 
   4 -16  -1   21.00    5.10 
  -4  16   1   15.20    7.40 
  -3  16   1    2.30    7.60 
   2 -16  -1    2.30    8.00 
   2 -16  -1    3.60    5.10 
   1 -16  -1   -1.40    4.80 
   1 -16  -1    0.20    7.80 
  -7  17   1   -4.70    9.60 
   6 -17  -1    3.70    4.90 
  -6  17   1    1.90    9.60 
   5 -17  -1    5.60    6.90 
   5 -17  -1    7.70    5.20 
  -5  17   1    6.90   11.50 
  -4  17   1    4.00   11.10 
   3 -17   2    2.50    7.90 
   4 -17   2    8.80    4.60 
   4 -17   2    2.30    6.50 
   4 -17   2   -3.20    4.80 
   4 -17   2    3.00    7.50 
   5 -17   2    6.60    4.60 
   5 -17   2    1.60    7.50 
   5 -17   2    3.50    5.80 
   5 -17   2   -8.90    4.60 
   6 -17   2   -1.30    5.60 
   6 -17   2   11.30    4.70 
   6 -17   2    4.40    7.20 
   6 -17   2   -2.50    4.50 
   7 -17   2    7.70    8.00 
   7 -17   2    3.70    5.10 
   7 -17   2   -5.50    5.60 
   7 -17   2    3.90    4.60 
   0 -16   2   23.70    7.90 
   1 -16   2    1.50    7.30 
   1 -16   2    7.50    4.70 
   2 -16   2    4.50    5.00 
   2 -16   2    3.60    7.10 
   2 -16   2    0.30    4.20 
   3 -16   2   -2.80    6.20 
   3 -16   2    5.80    3.80 
   3 -16   2   -1.20    4.30 
   4 -16   2  180.38   20.30 
   4 -16   2  174.88   21.30 
   4 -16   2  188.68   21.20 
   4 -16   2  186.58   19.60 
   5 -16   2  275.97   29.40 
   5 -16   2  264.27   29.20 
   5 -16   2  261.27   27.90 
   5 -16   2  263.27   28.60 
   6 -16   2    6.40    6.30 
   6 -16   2   12.50    4.00 
   6 -16   2    5.50    4.00 
   6 -16   2    2.90    4.90 
   7 -16   2   12.20    5.00 
   7 -16   2   -2.80    6.30 
   7 -16   2    3.40    4.00 
  -8  16  -2    3.10    7.40 
   8 -16   2    7.10    5.10 
   8 -16   2    7.90    4.40 
   9 -16   2    3.00    4.30 
  -2 -15   2    0.60    7.00 
  -1 -15   2    1.00    6.80 
   0 -15   2   -0.90    6.40 
   0 -15   2   -4.20    4.00 
   1 -15   2    5.10    5.80 
   1 -15   2    2.90    3.70 
   2 -15   2    5.70    5.50 
   2 -15   2    8.00    3.50 
   2 -15   2   12.10    4.40 
   3 -15   2    8.80    3.50 
   3 -15   2    2.00    3.80 
   3 -15   2    7.40    5.40 
   4 -15   2    4.20    3.30 
   4 -15   2    1.30    3.60 
   4 -15   2   -4.30    4.70 
   4 -15   2   -2.70    5.00 
   5 -15   2   -2.30    5.20 
   5 -15   2    2.30    3.60 
   5 -15   2    3.30    4.40 
  -6  15  -2    0.10    6.60 
   6 -15   2   -3.40    4.20 
   6 -15   2    2.60    3.40 
  -7  15  -2   -2.00    6.40 
   7 -15   2   -4.10    3.50 
   7 -15   2   -1.30    4.20 
  -8  15  -2   -1.50    5.80 
   8 -15   2    4.70    4.60 
   8 -15   2    2.90    3.70 
   9 -15   2    1.20    4.40 
   9 -15   2   -4.10    3.70 
  10 -15   2    2.20    3.90 
  11 -15   2    4.20    4.40 
  -3 -14   2    5.00    6.80 
  -2 -14   2    2.90    6.80 
  -1 -14   2   -1.20    5.50 
   0 -14   2   -0.40    5.40 
   0 -14   2    5.40    3.30 
   1 -14   2   15.70    5.60 
   1 -14   2   19.90    3.70 
   2 -14   2   12.20    3.10 
   2 -14   2    8.60    4.80 
   3 -14   2   23.40    6.30 
   3 -14   2   30.90    4.80 
   4 -14   2   15.70    4.90 
   4 -14   2    7.10    4.20 
   4 -14   2   13.90    3.60 
  -5  14  -2    2.10    5.60 
   5 -14   2    4.50    3.20 
   5 -14   2    2.80    4.20 
  -6  14  -2    3.20    5.40 
   6 -14   2    7.10    3.10 
   6 -14   2   -3.20    4.20 
  -7  14  -2    5.60    6.00 
   7 -14   2    1.00    3.10 
   7 -14   2    1.80    5.10 
  -8  14  -2    6.00    6.20 
   8 -14   2    4.40    5.80 
   8 -14   2    0.90    3.30 
   9 -14   2    1.90    3.40 
   9 -14   2   -1.80    5.50 
  10 -14   2   -2.30    5.30 
  10 -14   2    1.50    3.50 
  11 -14   2   11.40    4.30 
  12 -14   2   10.60    4.70 
  -4 -13   2    4.00    6.20 
  -3 -13   2    3.50    6.00 
  -2 -13   2   -1.50    5.00 
  -1 -13   2    7.20    4.80 
  -1 -13   2   17.60    3.40 
   0 -13   2   13.50    4.90 
   0 -13   2   10.50    3.00 
   1 -13   2    2.80    2.60 
   1 -13   2    2.80    4.20 
   2 -13   2    3.10    2.60 
   2 -13   2    4.40    4.10 
   3 -13   2   -0.90    3.90 
   3 -13   2   -0.20    2.40 
  -4  13  -2    4.80    4.50 
   4 -13   2    2.40    5.80 
  -5  13  -2    4.20    4.70 
   5 -13   2   -2.80    5.00 
   5 -13   2   -1.60    2.80 
  -6  13  -2   -3.40    4.80 
   6 -13   2   -3.20    4.30 
   6 -13   2    2.50    2.80 
  -7  13  -2    0.80    6.90 
   7 -13   2    3.50    2.80 
   7 -13   2   -0.40    3.60 
  -8  13  -2   -0.20    6.30 
   8 -13   2    2.30    2.90 
  -9  13  -2    2.10    5.50 
   9 -13   2   -1.50    3.20 
   9 -13   2   -2.70    5.00 
  10 -13   2   -2.70    5.50 
  10 -13   2   -0.80    3.30 
  11 -13   2    4.90    3.80 
  12 -13   2    3.00    3.90 
  -5 -12   2   13.70    6.70 
  -4 -12   2    3.70    5.40 
  -3 -12   2   -1.80    4.40 
  -2 -12   2   54.49    8.40 
  -1 -12   2   86.39    9.70 
  -1 -12   2   84.99   10.90 
   0 -12   2   10.20    2.60 
   0 -12   2    2.70    4.10 
   1 -12   2   27.70    4.10 
   1 -12   2   23.60    5.40 
   2 -12   2    6.90    3.80 
   2 -12   2    9.20    2.40 
  -3  12  -2  501.45   51.99 
  -4  12  -2   32.90    6.20 
   4 -12   2   23.70    6.70 
  -5  12  -2    3.60    7.40 
   5 -12   2   -2.40    3.30 
   5 -12   2    2.60    2.80 
  -6  12  -2    4.80    4.70 
   6 -12   2    7.50    2.80 
   6 -12   2    7.90    3.40 
  -7  12  -2   29.50    6.70 
   7 -12   2   26.90    5.50 
   7 -12   2   29.20    5.30 
  -8  12  -2   -3.00    5.10 
   8 -12   2   -1.10    2.60 
  -9  12  -2   14.50    4.80 
   9 -12   2    8.90    3.10 
   9 -12   2    9.70    3.60 
  10 -12   2   -0.50    3.10 
  11 -12   2    0.20    3.40 
  12 -12   2    5.10    3.60 
  13 -12   2    6.30    4.00 
  -6 -11   2   27.70    7.90 
  -5 -11   2   10.00    5.20 
  -4 -11   2    5.90    4.40 
  -3 -11   2    6.10    4.00 
  -2 -11   2   24.20    5.50 
  -1 -11   2   16.70    4.40 
  -1 -11   2   24.20    3.70 
   0 -11   2    0.90    2.10 
   0 -11   2    7.50    3.40 
   1 -11   2   13.50    2.90 
   1 -11   2   16.30    4.10 
  -2  11  -2   -2.50    3.50 
  -3  11  -2    8.20    5.70 
  -4  11  -2    2.40    4.00 
   4 -11   2    3.50    3.00 
  -5  11  -2    6.30    3.90 
   5 -11   2    7.10    2.80 
   5 -11   2    9.20    3.40 
  -6  11  -2   18.40    4.90 
   6 -11   2   15.50    4.30 
   6 -11   2   15.40    3.50 
  -7  11  -2   17.40    4.70 
   7 -11   2   12.80    3.40 
   7 -11   2   11.00    2.90 
  -8  11  -2   12.10    4.50 
   8 -11   2    6.20    2.50 
   8 -11   2    3.20    2.90 
  -9  11  -2   -1.40    4.00 
   9 -11   2   -1.10    2.90 
   9 -11   2    0.50    2.70 
  10 -11   2    1.30    2.80 
  11 -11   2    3.30    3.20 
  12 -11   2   15.90    3.80 
  12 -11   2   12.40    6.60 
  13 -11   2    4.00    3.80 
  -7 -10   2    4.50    6.10 
  -6 -10   2   30.90    7.10 
  -5 -10   2    3.00    4.10 
  -4 -10   2   16.70    4.40 
  -3 -10   2   -3.80    3.30 
  -2 -10   2    4.10    2.10 
  -2 -10   2    4.00    3.20 
  -1 -10   2   27.80    3.80 
  -1 -10   2   25.00    4.90 
   0 -10   2    6.30    3.10 
   0 -10   2    2.70    2.00 
   1 -10   2    1.50    1.90 
   1 -10   2    4.60    3.10 
  -2  10  -2   20.70    5.40 
  -3  10  -2   -1.50    2.70 
  -4  10  -2   24.30    4.70 
   4 -10   2   28.50    4.70 
  -5  10  -2    6.30    3.20 
   5 -10   2    6.70    2.50 
  -6  10  -2   32.80    5.40 
   6 -10   2   28.00    4.80 
   6 -10   2   26.10    5.40 
  -7  10  -2   -2.40    3.40 
   7 -10   2    1.80    2.50 
   7 -10   2   -1.00    2.10 
  -8  10  -2   -1.00    4.00 
   8 -10   2    0.50    2.50 
   8 -10   2   -1.80    2.20 
  -9  10  -2    1.10    3.60 
   9 -10   2    1.70    2.40 
  10 -10   2   35.10    5.10 
  10 -10   2   19.90    5.70 
  11 -10   2   -3.30    2.80 
  12 -10   2   26.50    7.00 
  12 -10   2   15.00    4.00 
  -8  -9   2   -7.30    5.50 
  -7  -9   2    7.00    4.60 
  -6  -9   2   28.40    6.10 
  -5  -9   2    2.00    3.60 
  -4  -9   2    2.30    3.10 
  -3  -9   2   72.29    8.90 
  -2  -9   2    1.30    2.80 
  -2  -9   2    4.30    1.80 
  -1  -9   2   21.60    4.20 
  -1  -9   2   22.20    3.20 
   0  -9   2    2.50    2.70 
   0  -9   2    0.50    1.80 
   1  -9   2    5.70    3.40 
  -2   9  -2    3.30    2.50 
  -3   9  -2    2.70    2.50 
  -4   9  -2   21.90    4.00 
   4  -9   2   21.10    4.00 
  -5   9  -2   -1.80    2.70 
   5  -9   2    0.00    2.00 
  -6   9  -2   15.30    4.00 
   6  -9   2   11.80    2.90 
   6  -9   2   10.60    2.90 
  -7   9  -2    1.10    3.10 
   7  -9   2   -1.00    2.30 
   7  -9   2    0.70    2.50 
  -8   9  -2    2.40    3.50 
   8  -9   2    0.60    2.60 
   8  -9   2    1.90    2.10 
  -9   9  -2    0.60    3.50 
   9  -9   2   -0.40    2.20 
 -10   9  -2   18.00    4.80 
  10  -9   2    9.80    2.90 
  11  -9   2   10.80    3.10 
  11  -9   2    4.70    6.00 
  12  -9   2   32.40    8.40 
  -9  -8   2    3.60    5.60 
  -8  -8   2    7.40    4.60 
  -7  -8   2   20.50    5.40 
  -6  -8   2   14.90    4.20 
  -5  -8   2    2.90    2.90 
  -4  -8   2   44.10    6.10 
  -3  -8   2   13.60    3.00 
  -2  -8   2   23.60    4.10 
  -2  -8   2   29.30    3.40 
  -1  -8   2   49.80    7.10 
  -1  -8   2   52.69    6.10 
   0  -8   2   -1.10    1.50 
   0  -8   2    1.20    2.50 
  -2   8  -2  238.48   25.00 
  -3   8  -2  792.62   78.79 
   3  -8   2  757.52   78.99 
  -4   8  -2   25.70    4.30 
   4  -8   2   28.90    4.20 
  -5   8  -2    2.30    2.60 
   5  -8   2   -1.20    1.70 
  -6   8  -2   -2.40    2.50 
   6  -8   2    2.30    1.90 
   6  -8   2    0.80    1.80 
  -7   8  -2   88.89    8.90 
   7  -8   2   89.59    9.00 
   7  -8   2   81.69    9.30 
   7  -8   2   42.90    8.20 
  -8   8  -2   68.69    7.20 
   8  -8   2   56.59    7.30 
   8  -8   2   63.29    7.50 
   8  -8   2   35.60    6.40 
  -9   8  -2    6.20    3.50 
   9  -8   2   -2.00    3.40 
   9  -8   2   -0.50    2.20 
  10  -8   2    4.10    4.00 
  10  -8   2   14.00    2.80 
  11  -8   2   11.70    5.80 
  11  -8   2    3.00    2.80 
 -10  -7   2    4.20    6.30 
  -9  -7   2   -0.20    4.60 
  -8  -7   2    4.70    3.80 
  -7  -7   2   16.20    4.60 
  -6  -7   2    5.30    3.10 
  -5  -7   2    5.10    2.60 
  -4  -7   2   21.20    3.90 
  -3  -7   2   30.70    4.50 
  -2  -7   2   31.50    4.10 
  -2  -7   2   27.50    5.10 
  -1  -7   2   -0.90    1.30 
  -1  -7   2    0.70    2.30 
   0  -7   2    1.10    1.20 
  -1   7  -2   24.20    3.70 
  -2   7  -2   14.50    2.90 
  -3   7  -2   32.80    4.40 
   3  -7   2   31.80    4.50 
  -4   7  -2    1.80    2.20 
   4  -7   2    5.20    1.70 
  -5   7  -2   22.30    3.60 
   5  -7   2   24.40    3.60 
   5  -7   2   17.50    3.20 
  -6   7  -2    4.20    2.40 
   6  -7   2    1.20    1.80 
   6  -7   2   -0.50    1.70 
  -7   7  -2    4.00    2.20 
   7  -7   2    3.80    2.10 
   7  -7   2    1.80    2.20 
  -8   7  -2    3.70    3.00 
   8  -7   2    1.90    2.80 
   8  -7   2    2.90    3.40 
  -9   7  -2    9.90    3.20 
   9  -7   2    5.00    2.20 
   9  -7   2    3.60    3.90 
 -10   7  -2   17.20    3.90 
  10  -7   2   15.40    4.70 
  10  -7   2   11.90    2.90 
  11  -7   2   28.60    8.50 
 -10  -6   2    4.30    5.40 
  -9  -6   2   -3.00    3.90 
  -8  -6   2    3.00    3.40 
  -7  -6   2   16.70    3.90 
  -6  -6   2    1.60    2.60 
  -5  -6   2   24.50    3.90 
  -4  -6   2    4.60    2.20 
  -3  -6   2    6.50    3.10 
  -2  -6   2  172.18   18.00 
  -2  -6   2  177.18   18.70 
  -1  -6   2  613.44   61.89 
  -1  -6   2  597.84   61.29 
   0  -6   2    0.70    1.10 
   0  -6   2    2.70    1.70 
  -1   6  -2   12.00    2.60 
  -2   6  -2   30.70    4.10 
  -3   6  -2   -1.00    1.70 
   3  -6   2    0.20    1.50 
   3  -6   2    1.10    1.80 
  -4   6  -2   39.40    4.60 
   4  -6   2   33.90    4.30 
   4  -6   2   38.80    4.80 
  -5   6  -2    4.00    1.90 
   5  -6   2    1.90    1.60 
   5  -6   2    0.00    1.50 
   5  -6   2    1.30    1.40 
  -6   6  -2   11.20    3.10 
   6  -6   2   14.00    2.90 
   6  -6   2   10.40    2.40 
  -7   6  -2   10.20    2.60 
   7  -6   2    9.30    2.40 
   7  -6   2   11.20    3.10 
  -8   6  -2   48.80    5.50 
   8  -6   2   43.00    5.90 
   8  -6   2   24.50    4.70 
   8  -6   2   45.10    6.80 
  -9   6  -2    4.70    2.90 
   9  -6   2    3.00    3.20 
   9  -6   2    2.60    3.60 
 -10   6  -2  105.49   11.20 
  10  -6   2  104.09   12.40 
  10  -6   2   91.09   11.50 
 -11   6  -2   22.30    4.70 
  11  -6   2   14.90    8.30 
 -11  -5   2   -0.30    6.60 
 -10  -5   2    6.00    4.80 
  -9  -5   2    3.40    3.70 
  -8  -5   2   11.00    3.40 
  -7  -5   2   -1.00    2.60 
  -6  -5   2   29.50    4.30 
  -5  -5   2   14.50    3.00 
  -4  -5   2    0.50    2.50 
  -3  -5   2    0.80    2.00 
  -2  -5   2   -0.10    1.70 
  -1  -5   2   22.50    2.80 
  -1  -5   2   21.00    3.40 
   0  -5   2    1.20    1.00 
   0  -5   2    0.60    1.50 
  -1   5  -2   43.90    4.30 
   1  -5   2   21.60    4.40 
  -2   5  -2   -0.40    1.40 
   2  -5   2    2.60    1.40 
   2  -5   2    1.30    1.50 
  -3   5  -2    3.90    1.70 
   3  -5   2    3.10    1.50 
   3  -5   2    5.30    1.40 
  -4   5  -2    0.20    1.40 
   4  -5   2   -1.00    1.30 
   4  -5   2    1.10    1.00 
  -5   5  -2   28.60    3.40 
   5  -5   2   32.20    3.90 
   5  -5   2   27.30    3.70 
   5  -5   2   19.50    3.00 
  -6   5  -2   51.29    5.60 
   6  -5   2   50.09    6.00 
   6  -5   2   41.50    5.10 
   6  -5   2   50.09    6.10 
  -7   5  -2   -1.10    2.10 
   7  -5   2    1.70    1.80 
   7  -5   2    2.20    2.90 
  -8   5  -2   40.10    4.90 
   8  -5   2   22.70    4.80 
   8  -5   2   43.60    5.40 
   8  -5   2   45.40    6.80 
  -9   5  -2    6.80    2.50 
   9  -5   2    1.30    2.60 
   9  -5   2    3.30    3.60 
 -10   5  -2   46.00    5.90 
  10  -5   2   30.80    6.50 
  10  -5   2   53.19    8.70 
 -11   5  -2   16.80    4.00 
  14  -5   2   98.79   15.60 
 -11  -4   2   -1.70    5.00 
 -10  -4   2    0.50    3.80 
  -9  -4   2   19.20    4.80 
   8   4  -2   51.79    7.30 
  -8  -4   2   46.30    6.40 
   7   4  -2   16.60    4.80 
  -7  -4   2   17.40    3.50 
   6   4  -2   -1.30    2.60 
  -6  -4   2    2.20    2.00 
  -5  -4   2    2.10    2.80 
  -4  -4   2   34.40    4.80 
  -3  -4   2  572.24   58.39 
  -2  -4   2  530.95   54.09 
  -1  -4   2   33.40    3.70 
  -1  -4   2   32.00    4.30 
   0  -4   2   12.10    2.30 
   0  -4   2   11.80    2.20 
   0  -4   2    9.40    1.70 
  -2   4  -2  979.80   98.59 
   2  -4   2  955.20   98.89 
   2  -4   2 1002.70   98.59 
  -3   4  -2  357.76   37.70 
   3  -4   2  387.76   37.70 
   3  -4   2  374.06   38.10 
   4  -4   2   65.19    7.30 
  -5   4  -2  228.28   22.90 
   5  -4   2  227.58   23.40 
   5  -4   2  221.98   22.80 
   5  -4   2  224.28   23.40 
  -6   4  -2  411.16   42.80 
   6  -4   2  407.56   43.30 
   6  -4   2  439.66   42.80 
   6  -4   2  435.26   43.40 
  -7   4  -2   27.40    4.00 
   7  -4   2   27.80    4.20 
   7  -4   2   31.80    5.40 
  -8   4  -2   44.20    5.80 
   8  -4   2   50.29    7.10 
   8  -4   2   48.60    5.90 
  -9   4  -2   22.70    4.70 
   9  -4   2   35.70    6.40 
   9  -4   2   32.60    4.80 
  10  -4   2    7.70    4.70 
  10  -4   2   14.40    6.80 
  13  -4   2   62.59   11.40 
 -12  -3   2    1.10    6.30 
 -11  -3   2    1.10    4.80 
  10   3  -2    2.70    4.30 
 -10  -3   2    2.20    3.40 
   9   3  -2   -3.20    3.70 
  -9  -3   2   -2.60    3.00 
   8   3  -2    4.20    4.20 
  -8  -3   2    6.00    2.60 
   7   3  -2   12.20    3.50 
  -7  -3   2   12.30    3.20 
   6   3  -2    6.00    2.70 
  -6  -3   2    7.20    3.20 
   5   3  -2    2.30    2.10 
  -5  -3   2    1.20    2.00 
   4   3  -2   34.40    4.80 
  -4  -3   2   36.90    4.70 
  -3  -3   2    9.80    2.20 
  -2  -3   2   96.29   10.40 
   1   3  -2    1.30    0.90 
   1   3  -2   -0.10    1.30 
  -1  -3   2    2.10    1.40 
   0  -3   2    3.30    0.90 
   0  -3   2    3.80    1.20 
   0  -3   2    2.60    1.50 
   1  -3   2    7.80    1.40 
   1  -3   2    7.20    1.60 
   1  -3   2    6.60    1.80 
   1  -3   2    6.20    1.20 
  -2   3  -2   24.20    2.90 
   2  -3   2   26.80    2.90 
   2  -3   2   25.40    3.40 
   3  -3   2    1.20    1.20 
   4  -3   2   13.30    2.70 
   4  -3   2   11.00    2.40 
  -5   3  -2   37.70    4.10 
   5  -3   2   29.50    4.00 
   5  -3   2   39.60    5.20 
   5  -3   2   37.40    4.50 
  -6   3  -2   15.70    2.50 
   6  -3   2   10.50    2.70 
   6  -3   2   17.10    4.20 
   6  -3   2   17.20    2.00 
   6  -3   2   18.80    2.80 
  -7   3  -2    5.90    2.20 
   7  -3   2    4.10    2.70 
   7  -3   2    3.40    1.60 
   7  -3   2    2.40    2.80 
   7  -3   2    1.40    1.80 
  -8   3  -2   33.30    4.80 
   8  -3   2   33.90    4.60 
   8  -3   2   30.10    6.00 
  -9   3  -2   52.59    7.60 
   9  -3   2   72.09    9.30 
   9  -3   2   66.69    7.70 
 -10   3  -2   21.10    4.90 
  10  -3   2   28.10    6.00 
  12  -3   2   37.20    9.50 
  12   2  -2    8.20    5.30 
 -12  -2   2    7.30    6.60 
  11   2  -2    9.80    4.80 
 -11  -2   2    0.40    4.30 
  10   2  -2    2.70    4.00 
 -10  -2   2    2.50    3.30 
   9   2  -2   35.20    6.90 
  -9  -2   2   35.30    5.20 
   8   2  -2   -2.10    3.50 
  -8  -2   2    1.10    2.50 
   7   2  -2   -0.90    2.60 
  -7  -2   2   -1.70    2.80 
   6   2  -2   14.90    3.80 
  -6  -2   2   16.90    3.10 
   5   2  -2   40.90    5.80 
  -5  -2   2   47.10    5.40 
   4   2  -2  102.59   11.10 
  -4  -2   2   96.69   10.70 
  -3  -2   2   36.30    4.40 
   2   2  -2    6.20    1.70 
  -2  -2   2    8.00    2.00 
   1   2  -2    0.80    0.90 
  -1  -2   2    2.10    1.20 
   0   2  -2  385.56   39.50 
   0  -2   2  396.76   39.50 
  -1   2  -2   -0.30    0.60 
   1  -2   2    0.60    0.90 
   1  -2   2   -0.20    0.60 
   2  -2   2   31.80    3.90 
   3  -2   2  393.16   40.00 
  -4   2  -2    8.20    1.40 
   4  -2   2    7.90    2.50 
   4  -2   2    7.90    1.70 
  -5   2  -2  223.18   23.00 
   5  -2   2  225.98   23.40 
   5  -2   2  229.58   23.60 
  -6   2  -2   15.80    2.40 
   6  -2   2   13.80    2.80 
   6  -2   2   16.00    4.00 
  -7   2  -2    3.90    1.90 
   7  -2   2    2.10    1.60 
   7  -2   2    0.60    2.60 
  -8   2  -2  209.28   21.80 
   8  -2   2  215.28   22.70 
   8  -2   2  204.68   21.90 
  -9   2  -2  179.08   18.70 
   9  -2   2  177.18   20.20 
   9  -2   2  176.38   18.80 
 -10   2  -2   31.40    5.80 
  10  -2   2   36.60    5.80 
  11  -2   2   29.80    7.80 
  12  -2   2   47.50    9.80 
  13  -2   2    7.50    4.70 
  13  -2   2   40.70    9.70 
  13   1  -2    5.20    6.30 
  12   1  -2    3.80    5.10 
  11   1  -2   -0.60    3.80 
  11   1  -2    1.60    4.30 
 -11  -1   2   -3.20    4.10 
  10   1  -2    2.60    4.30 
  10   1  -2   -1.10    2.50 
 -10  -1   2   -1.00    3.00 
   9   1  -2   -0.20    1.80 
   9   1  -2   -0.50    4.60 
  -9  -1   2   -1.30    2.60 
   8   1  -2   16.40    2.80 
   8   1  -2   12.70    3.40 
  -8  -1   2   17.70    4.50 
   7   1  -2    3.40    2.60 
   7   1  -2    4.20    1.40 
  -7  -1   2    6.70    2.30 
   6   1  -2    1.20    1.10 
   6   1  -2   -0.60    2.10 
  -6  -1   2    1.60    1.70 
   5   1  -2   69.59    8.20 
   5   1  -2   71.99    7.50 
  -5  -1   2   69.79    7.80 
   4   1  -2    1.70    1.70 
   4   1  -2    2.70    0.80 
  -4  -1   2    2.10    1.30 
   3   1  -2   22.80    3.40 
   3   1  -2   20.80    2.60 
  -3  -1   2   22.60    2.90 
   2   1  -2   20.70    2.60 
  -2  -1   2   22.00    2.70 
   1   1  -2   10.60    1.40 
  -1  -1   2    9.40    1.60 
   0   1  -2   17.10    2.40 
   0   1  -2   16.50    2.10 
   0  -1   2   22.70    2.50 
   1  -1   2   81.69    8.60 
  -2   1  -2   37.50    4.60 
   2  -1   2   50.19    5.20 
  -3   1  -2   42.20    4.60 
  -3   1  -2   38.60    4.50 
   3  -1   2   45.80    5.60 
   3  -1   2   39.70    4.70 
  -4   1  -2   39.30    4.50 
  -4   1  -2   38.80    4.60 
   4  -1   2   39.50    4.70 
   4  -1   2   43.20    5.60 
  -5   1  -2   88.09    9.40 
  -5   1  -2   87.89    9.60 
   5  -1   2   85.39    9.90 
   5  -1   2   93.09    9.60 
  -6   1  -2    7.80    2.10 
   6  -1   2    4.80    2.80 
   6  -1   2    8.60    1.70 
  -7   1  -2   78.79    8.10 
   7  -1   2   61.29    8.80 
   7  -1   2   75.79    8.10 
  -8   1  -2   70.49    7.60 
   8  -1   2   51.69    9.00 
   8  -1   2   70.79    7.50 
  -9   1  -2   -0.80    2.90 
   9  -1   2    1.10    2.10 
   9  -1   2   -2.10    5.20 
 -10   1  -2   14.30    5.40 
  10  -1   2    7.70    3.10 
  10  -1   2   21.50    5.30 
  11  -1   2    0.30    4.50 
  11  -1   2   13.90    5.70 
  12  -1   2    7.90    6.00 
  12  -1   2    0.50    3.50 
  13  -1   2   13.90    6.70 
  13  -1   2   -1.40    3.60 
  13   0  -2   -2.60    3.90 
  13   0  -2   -1.30    6.00 
  12   0  -2   11.60    5.00 
  12   0  -2   -2.80    3.00 
  11   0  -2    1.30    2.90 
  11   0  -2    0.00    4.20 
  10   0  -2   -1.00    6.10 
  10   0  -2    4.50    2.50 
 -10   0   2    1.20    3.30 
   9   0  -2   -1.00    3.10 
   9   0  -2    2.20    1.70 
  -9   0   2    2.10    3.40 
   8   0  -2   10.30    3.00 
   8   0  -2    8.40    1.90 
  -8   0   2   12.70    3.30 
   7   0  -2   14.20    3.40 
   7   0  -2   14.50    2.60 
  -7   0   2   15.20    2.80 
   6   0  -2   80.29    9.50 
   6   0  -2   85.99    8.90 
  -6   0   2   82.79    9.10 
   5   0  -2  293.57   29.50 
   5   0  -2  282.27   29.90 
  -5   0   2  292.67   29.60 
   4   0  -2  459.55   48.30 
   4   0  -2  483.25   48.00 
  -4   0   2  481.85   48.10 
   3   0  -2  195.68   19.40 
   3   0  -2  188.28   19.60 
   3   0  -2  175.18   19.30 
  -3   0   2  199.58   19.40 
   2   0  -2  728.73   71.19 
   2   0  -2  684.43   71.09 
  -2   0   2  694.13   71.19 
  -2   0   2  719.03   71.19 
   1   0  -2  956.40   94.59 
  -1   0   2  925.81   94.59 
   0   0  -2 2841.72  285.27 
   0   0   2 2839.92  285.27 
  -1   0  -2  296.77   28.90 
   1   0   2  278.17   28.90 
   1   0   2  280.77   28.90 
  -2   0  -2   76.09    8.40 
   2   0   2   76.99    8.40 
   2   0   2   84.79    9.00 
  -3   0  -2   60.09    6.70 
  -3   0  -2   61.39    6.80 
  -3   0  -2   61.39    6.40 
   3   0   2   62.09    7.40 
   3   0   2   63.69    6.60 
  -4   0  -2   46.10    5.50 
  -4   0  -2   45.30    5.20 
   4   0   2   42.40    5.90 
   4   0   2   48.10    5.10 
  -5   0  -2   48.30    5.20 
   5   0   2   31.20    6.00 
   5   0   2   51.29    5.10 
  -6   0  -2   25.10    3.70 
   6   0   2   25.80    3.70 
   6   0   2   30.40    5.20 
  -7   0  -2   96.69   10.30 
   7   0   2   85.59   11.40 
   7   0   2   99.09   10.20 
  -8   0  -2   29.80    4.70 
   8   0   2   27.30    4.50 
   8   0   2   34.60    6.80 
  -9   0  -2    5.20    4.70 
   9   0   2    2.20    2.20 
   9   0   2    6.30    4.80 
 -10   0  -2    5.10    3.70 
  10   0   2   10.20    4.90 
  10   0   2    3.60    2.50 
 -11   0  -2    7.40    4.80 
  11   0   2    7.60    4.30 
 -12   0  -2    4.40    6.00 
  12   0   2   12.20    3.70 
  13  -1  -2   10.60    5.70 
  13  -1  -2   -1.20    3.50 
  12  -1  -2   -4.20    2.80 
  12  -1  -2    1.00    4.70 
  11  -1  -2    8.10    5.00 
  11  -1  -2    6.10    2.90 
 -11   1   2    3.60    4.10 
  10  -1  -2   20.90    4.40 
  10  -1  -2   24.40    6.40 
 -10   1   2   20.90    5.00 
   9  -1  -2   -1.30    3.10 
   9  -1  -2   -1.80    1.60 
  -9   1   2    5.30    3.90 
   8  -1  -2   10.60    2.50 
   8  -1  -2    9.60    3.20 
  -8   1   2   11.00    2.90 
   7  -1  -2   20.10    4.20 
   7  -1  -2   21.00    3.10 
  -7   1   2   23.90    3.40 
   6  -1  -2   33.30    3.90 
   6  -1  -2   31.10    4.60 
  -6   1   2   33.20    4.10 
   5  -1  -2   10.90    2.40 
   5  -1  -2    9.70    1.90 
  -5   1   2   11.00    2.10 
   4  -1  -2    3.30    1.50 
   4  -1  -2    5.80    1.60 
   4  -1  -2    5.30    1.30 
  -4   1   2    9.20    1.90 
   3  -1  -2   88.89    9.30 
   3  -1  -2   98.49    9.40 
   3  -1  -2   98.99    9.30 
  -3   1   2   99.79    9.50 
  -3   1   2   59.79    9.30 
   2  -1  -2  108.99   10.50 
   2  -1  -2   92.69   10.40 
  -2   1   2  102.99   10.60 
   1  -1  -2  106.99   11.70 
   1  -1  -2  115.09   11.80 
   1  -1  -2  113.29   11.60 
  -1   1   2  119.69   11.60 
  -1   1   2  118.69   11.90 
   0  -1  -2   31.70    4.10 
   0  -1  -2   49.10    4.40 
   0   1   2   32.40    4.30 
   0   1   2   33.70    4.20 
  -1  -1  -2    7.20    1.50 
   1   1   2    6.30    1.70 
   1   1   2    4.30    2.00 
  -2  -1  -2   21.50    2.90 
   2   1   2   22.70    3.10 
   2   1   2   21.30    2.50 
   2   1   2   22.30    3.80 
  -3  -1  -2    9.70    2.50 
  -3  -1  -2   12.00    2.20 
  -3  -1  -2   11.50    1.60 
   3   1   2   11.80    1.70 
   3   1   2    6.30    2.70 
  -4  -1  -2   15.70    2.50 
  -4  -1  -2   14.70    2.00 
   4   1   2   14.40    2.30 
   4   1   2   15.30    3.40 
  -5  -1  -2   64.19    6.90 
   5   1   2   52.59    7.60 
   5   1   2   63.69    6.60 
  -6  -1  -2    4.20    2.10 
   6   1   2    4.10    1.60 
   6   1   2   -1.30    2.80 
  -7  -1  -2    4.80    2.30 
   7   1   2   -3.50    3.30 
   7   1   2    3.80    1.70 
  -8  -1  -2    4.40    4.20 
   8   1   2    2.40    4.90 
   8   1   2    5.20    2.00 
  -9  -1  -2    7.90    3.70 
   9   1   2    2.50    2.30 
   9   1   2    8.40    3.90 
 -10  -1  -2    7.70    4.40 
  10   1   2    1.80    2.60 
  10   1   2    8.80    4.70 
 -11  -1  -2   -4.00    5.10 
  11   1   2    3.00    2.80 
  11   1   2    6.50    5.40 
 -12  -1  -2   -4.60    6.00 
  12   1   2    1.50    5.40 
  14  -2  -2   -0.80    4.10 
  14  -2  -2   15.80    6.80 
  13  -2  -2   -2.00    3.40 
  13  -2  -2    1.20    5.40 
  12  -2  -2    2.20    2.90 
  12  -2  -2    9.80    4.70 
  11  -2  -2    8.10    2.80 
  11  -2  -2   13.60    6.50 
 -11   2   2    8.40    4.90 
  10  -2  -2   23.90    4.90 
  10  -2  -2   21.10    6.00 
 -10   2   2   21.80    6.30 
   9  -2  -2   64.69    8.70 
   9  -2  -2   63.79    7.40 
  -9   2   2   64.59    8.00 
   8  -2  -2    9.60    3.10 
   8  -2  -2   10.80    2.60 
  -8   2   2   15.20    3.30 
   7  -2  -2   60.59    7.80 
   7  -2  -2   65.09    7.20 
  -7   2   2   66.89    7.40 
   6  -2  -2   97.99   10.50 
   6  -2  -2  102.29   10.90 
  -6   2   2   96.39   10.60 
   5  -2  -2  229.38   24.00 
   5  -2  -2  240.08   24.00 
  -5   2   2  231.18   23.90 
   4  -2  -2  154.98   16.10 
   4  -2  -2  150.88   16.10 
   4  -2  -2  157.88   16.20 
  -4   2   2  162.88   16.20 
   3  -2  -2 1288.37  128.49 
   3  -2  -2 1244.68  128.69 
   3  -2  -2 1339.77  128.69 
  -3   2   2 1196.68  128.49 
  -3   2   2 1326.27  128.79 
   2  -2  -2   57.79    6.40 
   2  -2  -2   63.69    6.50 
  -2   2   2   59.39    6.60 
   1  -2  -2    4.20    1.00 
   1  -2  -2    1.80    1.10 
   1  -2  -2    6.70    1.30 
  -1   2   2    5.20    1.00 
  -1   2   2    5.70    1.60 
  -1   2   2    3.40    1.20 
   0  -2  -2    1.80    1.20 
   0   2   2    2.60    1.40 
  -1  -2  -2  213.68   22.30 
   1   2   2  207.88   22.30 
   1   2   2  226.78   22.40 
   2   2   2 1275.47  140.79 
   2   2   2 1518.65  140.99 
   3   2   2  265.57   28.20 
   3   2   2  294.37   29.10 
  -4  -2  -2   21.30    2.80 
  -4  -2  -2   25.70    3.40 
   4   2   2   16.00    3.90 
   4   2   2   25.80    2.70 
  -5  -2  -2   60.29    6.90 
   5   2   2   59.69    6.40 
   5   2   2   57.99    7.70 
  -6  -2  -2  101.49   11.10 
   6   2   2  102.09   10.60 
   6   2   2   96.49   12.10 
  -7  -2  -2  331.67   35.20 
   7   2   2  374.86   36.20 
   7   2   2  307.17   34.30 
  -8  -2  -2   10.10    3.40 
   8   2   2   10.60    3.70 
   8   2   2    7.40    2.30 
  -9  -2  -2   -1.80    3.70 
   9   2   2    0.90    2.20 
   9   2   2    2.20    3.90 
 -10  -2  -2   28.40    6.40 
  10   2   2   15.90    3.50 
  10   2   2   25.70    7.10 
 -11  -2  -2    8.70    6.20 
  11   2   2   13.80    5.20 
 -12  -2  -2   -3.90    6.70 
  12   2   2    9.10    6.20 
  14  -3  -2   12.40    6.30 
  14  -3  -2    1.70    4.30 
 -14   3   2   -7.30    5.90 
  13  -3  -2   10.90    5.30 
  13  -3  -2    2.90    3.10 
 -13   3   2   -0.50    5.70 
  12  -3  -2    1.50    2.50 
  12  -3  -2    6.50    6.50 
 -12   3   2   -3.00    5.20 
  11  -3  -2   10.50    4.80 
  11  -3  -2   -1.20    2.30 
 -11   3   2    1.40    4.60 
  10  -3  -2   31.20    6.30 
  10  -3  -2   47.10    7.10 
 -10   3   2   30.70    7.00 
   9  -3  -2   21.00    3.60 
   9  -3  -2   19.90    5.80 
  -9   3   2   20.80    4.50 
   8  -3  -2   18.50    4.80 
   8  -3  -2   21.20    3.50 
  -8   3   2   27.10    4.00 
   7  -3  -2    0.40    1.30 
   7  -3  -2   -0.50    2.00 
  -7   3   2   -0.50    2.00 
   6  -3  -2    0.80    1.20 
   6  -3  -2    3.00    1.90 
  -6   3   2    4.40    1.90 
   5  -3  -2    2.50    1.20 
   5  -3  -2    1.30    1.50 
  -5   3   2    5.10    1.70 
   4  -3  -2   48.40    5.40 
   4  -3  -2   46.80    5.20 
   4  -3  -2   48.10    5.40 
  -4   3   2   48.30    5.40 
  -4   3   2   45.70    5.00 
   3  -3  -2   18.90    1.90 
   3  -3  -2   15.30    2.30 
   3  -3  -2   18.50    2.50 
  -3   3   2   13.20    2.70 
   2  -3  -2   25.90    3.30 
   2  -3  -2   22.60    2.90 
   2  -3  -2   28.40    3.20 
  -2   3   2   28.20    3.50 
   1  -3  -2    5.10    1.00 
   1  -3  -2    4.50    1.60 
  -1   3   2    5.00    1.40 
  -1   3   2    6.50    1.90 
   0  -3  -2  132.19   17.30 
   0   3   2  192.58   17.60 
   0   3   2  177.88   17.40 
   1   3   2   41.00    5.40 
   1   3   2   47.70    5.40 
   2   3   2   10.90    3.30 
   2   3   2   20.80    3.00 
   3   3   2   54.39    6.30 
   3   3   2   50.59    6.60 
  -4  -3  -2   36.70    4.10 
  -4  -3  -2   34.90    4.70 
   4   3   2   35.30    5.00 
  -5  -3  -2   -1.50    2.00 
   5   3   2   -2.90    2.30 
  -6  -3  -2    1.30    3.40 
   6   3   2   -1.80    3.20 
  -7  -3  -2   23.50    4.70 
   7   3   2   21.00    4.50 
  -8  -3  -2   27.80    5.20 
   8   3   2   32.80    6.40 
  -9  -3  -2    3.30    3.80 
   9   3   2    2.30    4.00 
 -10  -3  -2   12.50    5.50 
  10   3   2   10.60    4.70 
 -11  -3  -2   -1.50    6.10 
  11   3   2    4.20    5.70 
  14  -4  -2    1.70    3.90 
  14  -4  -2   12.50    6.60 
 -14   4   2   12.80    5.70 
  13  -4  -2    1.40    2.90 
  13  -4  -2   10.70    5.50 
 -13   4   2    7.10    5.30 
  12  -4  -2   16.50    4.10 
 -12   4   2   13.30    5.30 
  11  -4  -2   34.30    5.70 
  11  -4  -2   52.79    7.40 
 -11   4   2   34.00    8.00 
  10  -4  -2   28.80    6.10 
  10  -4  -2   16.20    4.10 
 -10   4   2   22.00    4.80 
   9  -4  -2   -0.50    2.00 
   9  -4  -2    0.10    3.00 
  -9   4   2   -1.10    2.60 
   8  -4  -2    3.70    1.80 
   8  -4  -2    5.70    3.30 
  -8   4   2    8.70    2.50 
   7  -4  -2   54.79    6.20 
   7  -4  -2   51.69    6.40 
  -7   4   2   47.90    6.10 
   6  -4  -2   81.99    8.30 
   6  -4  -2   74.59    8.40 
  -6   4   2   72.89    8.40 
   5  -4  -2  263.77   28.40 
   5  -4  -2  272.97   28.10 
  -5   4   2  294.67   28.40 
   4  -4  -2   62.49    7.20 
   4  -4  -2   65.09    6.80 
  -4   4   2   67.59    7.20 
   3  -4  -2 1354.46  130.99 
   3  -4  -2 1286.47  131.19 
  -3   4   2 1267.17  131.29 
   2  -4  -2  488.25   54.09 
  -2   4   2  582.24   54.39 
   1  -4  -2  108.89   12.20 
  -1   4   2  128.09   12.80 
   0  -4  -2   63.19    6.40 
   0   4   2   61.89    7.10 
   0   4   2   59.09    7.10 
   1   4   2  561.34   56.29 
   1   4   2  543.05   56.29 
   2   4   2    3.60    1.90 
   2   4   2    2.10    1.80 
   3   4   2   78.29    9.20 
   3   4   2   78.49    9.00 
  -4  -4  -2   27.90    3.60 
  -4  -4  -2   27.50    4.50 
   4   4   2   28.30    4.70 
  -5  -4  -2   -1.00    2.10 
  -5  -4  -2    2.30    3.60 
   5   4   2   -2.20    2.80 
  -6  -4  -2    9.80    3.30 
   6   4   2    5.00    3.10 
  -7  -4  -2   15.10    3.70 
   7   4   2    8.50    3.30 
  -8  -4  -2   25.40    5.20 
   8   4   2   27.20    5.80 
  -9  -4  -2   23.90    6.40 
   9   4   2   36.30    7.00 
 -10  -4  -2    3.10    5.70 
  10   4   2    7.60    5.50 
 -11  -4  -2    3.60    7.30 
  11   4   2    4.90    6.30 
  14  -5  -2   21.50    9.80 
 -14   5   2   14.90    8.90 
  13  -5  -2   14.40    8.90 
  13  -5  -2    1.80    2.90 
 -13   5   2    8.10    4.70 
  12  -5  -2    1.50    2.60 
 -12   5   2    9.40    4.30 
  11  -5  -2   -0.60    2.20 
 -11   5   2    5.40    5.00 
  10  -5  -2    2.70    1.90 
 -10   5   2    7.20    3.30 
   9  -5  -2    5.90    3.30 
   9  -5  -2    2.10    2.20 
  -9   5   2   -0.20    2.60 
   8  -5  -2    2.00    1.80 
   8  -5  -2    4.40    2.80 
  -8   5   2    1.70    2.00 
   7  -5  -2   11.60    2.70 
   7  -5  -2    8.10    2.00 
  -7   5   2    7.90    2.50 
   6  -5  -2   10.00    2.70 
   6  -5  -2   12.40    2.50 
  -6   5   2   15.40    2.90 
   5  -5  -2  115.79   11.90 
   5  -5  -2  113.39   12.30 
  -5   5   2  117.39   12.30 
   4  -5  -2    6.60    1.50 
   4  -5  -2    6.40    1.30 
  -4   5   2    8.20    1.90 
   3  -5  -2    0.90    1.20 
  -3   5   2    0.50    1.60 
   2  -5  -2    5.90    1.40 
  -2   5   2    6.40    2.10 
   1  -5  -2   75.39    8.20 
  -1   5   2   79.59    8.80 
   0  -5  -2    7.50    1.50 
   0   5   2    5.60    2.10 
   0   5   2    8.70    2.40 
   1   5   2   20.10    3.50 
   1   5   2   20.30    3.50 
   2   5   2   21.50    3.70 
   2   5   2   19.50    3.90 
   3   5   2    0.70    2.10 
   3   5   2    0.20    2.40 
  -4  -5  -2   11.10    3.60 
  -4  -5  -2   14.20    2.70 
   4   5   2   10.30    3.40 
  -5  -5  -2   -2.10    1.60 
  -5  -5  -2    2.60    2.60 
   5   5   2    0.00    3.30 
  -6  -5  -2    4.60    2.90 
   6   5   2    2.20    3.00 
  -7  -5  -2   16.40    3.80 
   7   5   2   11.10    3.70 
  -8  -5  -2    7.00    3.90 
   8   5   2    6.60    4.30 
  -9  -5  -2    3.40    5.10 
   9   5   2    0.80    5.30 
 -10  -5  -2    1.40    6.20 
  10   5   2    0.40    5.70 
  14  -6  -2   -0.60    3.30 
  13  -6  -2   16.30    7.60 
  13  -6  -2    5.30    3.40 
 -13   6   2   25.30    5.60 
  12  -6  -2   18.00    4.60 
 -12   6   2   24.70    6.30 
  11  -6  -2   13.30    3.00 
 -11   6   2   26.80    6.20 
 -10   6   2    5.30    3.10 
   9  -6  -2   37.80    5.30 
   9  -6  -2   29.10    5.60 
  -9   6   2   27.70    5.00 
   8  -6  -2   90.09    9.50 
   8  -6  -2   80.59    9.70 
  -8   6   2   89.09    9.90 
   7  -6  -2    1.70    1.60 
   7  -6  -2   -0.40    2.00 
  -7   6   2   -0.80    1.90 
   6  -6  -2  167.78   17.50 
   6  -6  -2  165.38   17.10 
  -6   6   2  165.08   17.50 
   5  -6  -2   74.79    7.50 
   5  -6  -2   68.39    7.90 
  -5   6   2   67.09    7.90 
   4  -6  -2   12.30    2.20 
   4  -6  -2   11.20    2.50 
  -4   6   2   11.10    2.70 
   3  -6  -2   -0.40    1.20 
  -3   6   2   -1.40    1.60 
   2  -6  -2   16.90    2.70 
  -2   6   2   17.50    3.40 
   1  -6  -2  252.47   24.80 
  -1   6   2  231.88   25.40 
   0  -6  -2   30.50    3.60 
   0   6   2   28.80    4.40 
   1   6   2   48.80    6.40 
   1   6   2   49.90    6.40 
   2   6   2   -0.90    2.20 
   2   6   2   -1.90    2.70 
  -3  -6  -2   -0.70    2.40 
   3   6   2    3.60    2.90 
  -4  -6  -2    0.90    2.60 
  -4  -6  -2    0.70    1.60 
   4   6   2    4.20    3.60 
  -5  -6  -2   12.20    2.30 
  -5  -6  -2   14.80    3.70 
   5   6   2   10.90    3.30 
  -6  -6  -2   22.50    4.70 
   6   6   2   20.30    5.40 
  -7  -6  -2    3.40    3.90 
   7   6   2    4.90    4.00 
  -8  -6  -2    3.60    4.50 
   8   6   2    2.70    4.40 
  -9  -6  -2   16.10    6.00 
   9   6   2   13.30    6.00 
 -10  -6  -2    3.50    8.80 
  10   6   2   -1.00    6.50 
  14  -7  -2   -1.10    3.50 
  13  -7  -2    0.80    2.90 
 -12   7   2   12.30    7.70 
 -11   7   2   15.70    5.80 
 -10   7   2   11.60    3.70 
   9  -7  -2    9.10    2.50 
  -9   7   2   11.50    3.40 
   8  -7  -2    1.10    1.90 
   8  -7  -2   -2.40    2.00 
  -8   7   2    3.10    2.60 
   7  -7  -2   33.10    4.50 
   7  -7  -2   26.90    4.20 
  -7   7   2   35.00    4.70 
   6  -7  -2    1.00    1.40 
   6  -7  -2    1.90    1.50 
  -6   7   2    1.10    2.20 
   5  -7  -2    5.20    1.50 
   5  -7  -2    4.20    1.80 
  -5   7   2    4.50    2.20 
   4  -7  -2    2.50    1.40 
  -4   7   2    2.20    2.00 
   3  -7  -2    4.80    1.60 
  -3   7   2    6.40    2.30 
   2  -7  -2   -0.50    1.30 
  -2   7   2   -0.70    2.10 
   1  -7  -2    0.70    1.40 
  -1   7   2   -0.60    2.60 
   0  -7  -2    4.20    1.50 
   0   7   2    4.10    2.90 
   1   7   2    0.50    2.90 
   2   7   2    8.30    2.70 
   2   7   2    9.60    3.20 
  -3  -7  -2    6.80    1.70 
  -3  -7  -2    3.50    2.70 
   3   7   2    1.70    3.30 
  -4  -7  -2    2.50    1.80 
  -4  -7  -2    4.60    2.90 
   4   7   2   -0.80    2.80 
  -5  -7  -2    6.40    2.20 
  -5  -7  -2    2.70    3.40 
   5   7   2    0.20    3.30 
  -6  -7  -2    3.10    3.60 
   6   7   2    4.60    3.80 
  -7  -7  -2    5.80    4.40 
   7   7   2    5.70    4.50 
  -8  -7  -2   -3.50    4.90 
   8   7   2   -1.80    5.00 
  -9  -7  -2    6.00    7.80 
   9   7   2    5.60    5.80 
  14  -8  -2   -1.10    3.50 
  13  -8  -2   13.50    4.20 
 -13   8   2   44.10    6.90 
  12  -8  -2    8.50    2.90 
 -12   8   2   21.00    7.00 
   9  -8  -2    1.50    2.50 
   9  -8  -2    2.00    2.00 
  -9   8   2    6.30    3.40 
   8  -8  -2   -1.20    2.20 
  -8   8   2    2.00    2.90 
   7  -8  -2   89.89    9.60 
   7  -8  -2   94.19   10.30 
  -7   8   2   85.49   10.30 
   6  -8  -2   21.50    3.90 
   6  -8  -2   27.10    3.50 
  -6   8   2   19.70    4.20 
   5  -8  -2    8.00    2.10 
   5  -8  -2    9.50    2.10 
  -5   8   2   10.70    2.70 
   4  -8  -2   -0.30    1.60 
  -4   8   2    0.10    2.30 
   3  -8  -2   24.00    4.00 
  -3   8   2   27.60    4.40 
   2  -8  -2   20.60    3.40 
  -2   8   2   20.20    4.40 
   1  -8  -2   17.60    3.10 
  -1   8   2   15.30    4.80 
   0  -8  -2   16.50    3.00 
   0   8   2   20.50    3.90 
   1   8   2   10.40    2.80 
   2   8   2    5.70    2.80 
  -3  -8  -2    5.30    3.10 
  -3  -8  -2    2.40    2.00 
  -4  -8  -2   23.40    3.80 
  -4  -8  -2   25.10    5.10 
  -5  -8  -2   11.90    4.10 
  -5  -8  -2    6.00    2.60 
  -6  -8  -2   26.00    6.20 
  -7  -8  -2    2.10    4.80 
  -8  -8  -2   -7.20    6.70 
  14  -9  -2   -2.10    3.60 
  13  -9  -2   -2.30    3.00 
  12  -9  -2    5.70    3.00 
 -12   9   2   17.30    7.40 
  11  -9  -2   15.40    3.30 
 -11   9   2   22.90    7.00 
  10  -9  -2    6.20    2.60 
  10  -9  -2   15.50    3.90 
 -10   9   2    8.70    4.80 
   9  -9  -2   16.10    3.80 
  -9   9   2   24.40    5.50 
   8  -9  -2    7.80    2.30 
   8  -9  -2    7.10    2.40 
  -8   9   2   12.90    4.00 
   7  -9  -2   16.50    3.90 
   7  -9  -2   10.80    2.90 
  -7   9   2   14.60    4.20 
   6  -9  -2    4.50    1.80 
   6  -9  -2    3.40    2.00 
  -6   9   2    3.10    2.80 
   5  -9  -2   -1.00    1.90 
   5  -9  -2   -2.10    1.90 
  -5   9   2    1.10    2.70 
   4  -9  -2   22.70    3.80 
  -4   9   2   17.90    4.40 
   3  -9  -2   13.20    3.30 
  -3   9   2   14.00    4.50 
   2  -9  -2    1.30    1.90 
  -2   9   2   -1.00    2.70 
   1  -9  -2   -0.70    1.80 
  -1   9   2   -2.10    2.70 
   0  -9  -2    2.30    1.70 
   0   9   2    5.30    2.70 
   1   9   2    1.60    2.80 
   2   9   2    2.90    3.10 
  -3  -9  -2   12.50    3.80 
  -3  -9  -2   14.00    2.70 
  -4  -9  -2    4.30    4.00 
  -4  -9  -2    1.70    2.50 
  -5  -9  -2    8.90    3.10 
  -5  -9  -2   10.90    4.70 
  -6  -9  -2   14.30    5.30 
  -7  -9  -2    0.00    7.00 
  14 -10  -2    0.00    3.80 
  13 -10  -2    0.90    3.20 
  12 -10  -2    1.00    2.90 
 -12  10   2    5.40    6.50 
  11 -10  -2   -3.20    2.80 
 -11  10   2    4.70    7.70 
  10 -10  -2   20.20    4.70 
 -10  10   2   33.10    8.10 
   9 -10  -2   11.40    2.70 
  -9  10   2   11.20    6.00 
   8 -10  -2    2.90    2.20 
   8 -10  -2    4.30    2.20 
  -8  10   2    6.00    4.30 
   7 -10  -2   -1.50    2.60 
   7 -10  -2    1.20    2.10 
  -7  10   2   -0.90    4.10 
   6 -10  -2   15.50    3.60 
   6 -10  -2   22.50    4.40 
  -6  10   2   24.00    5.90 
   5 -10  -2   -0.40    2.00 
   5 -10  -2    4.30    2.80 
  -5  10   2   -0.20    4.90 
   4 -10  -2   35.20    5.20 
  -4  10   2   34.80    7.00 
   3 -10  -2    4.40    2.30 
  -3  10   2    9.40    3.40 
   2 -10  -2   22.20    4.20 
  -2  10   2   19.60    4.40 
   1 -10  -2    0.60    2.00 
  -1  10   2    0.60    3.00 
   0 -10  -2   47.10    5.50 
   0  10   2   40.30    6.10 
   1  10   2   -0.90    3.30 
  -2 -10  -2   10.80    2.70 
  -2 -10  -2   12.50    4.10 
  -3 -10  -2    6.00    2.60 
  -3 -10  -2    6.00    4.20 
  -4 -10  -2   16.90    5.40 
  -4 -10  -2    7.70    3.30 
  -5 -10  -2  178.18   20.80 
  -6 -10  -2    0.60    6.60 
  -7 -10  -2    3.60    6.80 
  14 -11  -2    0.80    4.10 
  13 -11  -2    4.00    3.60 
  12 -11  -2   27.60    6.20 
 -12  11   2   38.30    8.30 
  11 -11  -2    3.80    3.00 
 -11  11   2    7.40    6.40 
  10 -11  -2    6.40    2.70 
 -10  11   2    9.70    4.90 
   9 -11  -2    2.00    2.50 
  -9  11   2   -1.40    5.20 
   8 -11  -2    1.20    2.40 
   8 -11  -2    4.70    2.50 
  -8  11   2    6.30    5.30 
   7 -11  -2   11.30    2.90 
   7 -11  -2   14.10    3.60 
  -7  11   2   15.20    5.50 
   6 -11  -2   18.70    4.10 
   6 -11  -2   17.10    3.90 
  -6  11   2   20.30    5.50 
   5 -11  -2   -1.70    2.70 
   5 -11  -2    0.10    2.40 
  -5  11   2   -1.60    3.50 
   4 -11  -2   -0.40    2.40 
  -4  11   2   -1.50    3.40 
   3 -11  -2    0.90    2.30 
  -3  11   2    0.10    3.40 
   2 -11  -2    3.00    2.30 
  -2  11   2    4.00    3.30 
   1 -11  -2    8.00    2.40 
  -1  11   2    3.70    3.60 
   0 -11  -2    1.30    2.30 
   0  11   2   -0.60    3.50 
   1  11   2   -0.80    3.80 
  -2 -11  -2    4.70    4.40 
  -2 -11  -2    0.70    2.80 
  -3 -11  -2    0.40    3.00 
  -3 -11  -2    8.90    4.90 
  -4 -11  -2    5.20    3.50 
  -4 -11  -2    3.80    5.60 
  -5 -11  -2   14.20    7.80 
  -6 -11  -2   -0.70    7.00 
  13 -12  -2    0.80    3.70 
  12 -12  -2   -2.40    3.60 
  11 -12  -2    4.30    3.30 
 -11  12   2   -4.50    5.60 
  10 -12  -2   -1.00    2.80 
 -10  12   2    1.40    5.70 
   9 -12  -2   12.10    3.30 
  -9  12   2   21.30    6.20 
   8 -12  -2   59.69    7.80 
   8 -12  -2   55.59    7.40 
  -8  12   2   59.59    9.30 
   7 -12  -2   32.80    5.30 
   7 -12  -2   32.90    5.70 
  -7  12   2   31.20    6.70 
   6 -12  -2   12.40    4.90 
   6 -12  -2   15.10    3.60 
  -6  12   2   13.40    4.40 
   5 -12  -2   11.00    4.00 
  -5  12   2   12.50    4.20 
   4 -12  -2   28.40    5.70 
  -4  12   2   29.50    5.80 
   3 -12  -2    6.00    2.60 
  -3  12   2    4.40    4.00 
   2 -12  -2    3.10    2.60 
  -2  12   2    1.60    3.90 
   1 -12  -2   15.80    3.20 
  -1  12   2   14.80    4.50 
   0  12   2    6.90    4.30 
  -1 -12  -2    1.50    4.90 
  -2 -12  -2   -3.90    5.20 
  -2 -12  -2    2.00    3.30 
  -3 -12  -2    6.70    3.70 
  -3 -12  -2    2.30    6.00 
  -4 -12  -2   46.70   10.60 
  -4 -12  -2   31.30    6.70 
  -5 -12  -2    5.00    7.20 
  13 -13  -2    3.30    4.30 
  12 -13  -2    3.80    3.80 
  11 -13  -2   -0.80    3.40 
 -11  13   2    2.80    6.40 
  10 -13  -2    1.30    3.20 
 -10  13   2   10.10    6.40 
   9 -13  -2    4.00    3.10 
  -9  13   2    4.20    6.20 
   8 -13  -2    1.10    2.90 
   8 -13  -2   -5.00    3.90 
  -8  13   2   -4.50    5.30 
   7 -13  -2    2.50    3.10 
   7 -13  -2   -0.80    2.90 
  -7  13   2    2.90    5.00 
   6 -13  -2    1.40    3.30 
   6 -13  -2    0.10    3.30 
  -6  13   2    7.80    4.70 
   5 -13  -2    4.10    5.40 
  -5  13   2    0.30    4.50 
   4 -13  -2   -1.10    3.30 
  -4  13   2    5.30    4.50 
   3 -13  -2   -1.10    3.00 
  -3  13   2    4.80    4.50 
   2 -13  -2    2.20    3.20 
  -2  13   2    2.90    4.50 
  -1  13   2    5.50    4.60 
   0  13   2    0.60    4.80 
  -1 -13  -2    0.40    5.60 
  -1 -13  -2   -1.80    3.50 
  -2 -13  -2    8.70    4.60 
  -2 -13  -2    5.40    7.20 
  -3 -13  -2    8.50    4.90 
  -3 -13  -2    6.60    7.70 
  12 -14  -2    4.00    4.20 
  11 -14  -2   -0.80    3.80 
 -11  14   2   -8.30    6.70 
  10 -14  -2   -4.70    3.40 
 -10  14   2    4.60    7.10 
   9 -14  -2   -1.00    3.30 
  -9  14   2    5.40    6.70 
   8 -14  -2    4.70    3.40 
  -8  14   2    6.50    6.50 
   7 -14  -2    3.60    3.30 
   7 -14  -2   -3.00    3.50 
  -7  14   2    6.00    6.20 
   6 -14  -2   12.50    4.20 
   6 -14  -2    3.20    3.40 
  -6  14   2    4.90    5.90 
   5 -14  -2    8.10    4.10 
  -5  14   2    3.90    5.20 
   4 -14  -2    3.60    5.10 
  -4  14   2    6.50    5.20 
   3 -14  -2    1.10    3.60 
  -3  14   2    3.70    5.10 
  -2  14   2    9.40    5.10 
  -1  14   2   45.20    8.60 
   0 -14  -2    4.60    3.80 
   0 -14  -2    5.20    6.50 
  -1 -14  -2    4.60    7.50 
  -1 -14  -2    0.90    4.60 
  -2 -14  -2    4.20    7.70 
  -2 -14  -2    0.10    4.70 
  11 -15  -2    0.80    4.20 
  10 -15  -2    6.60    3.90 
 -10  15   2    2.30    8.20 
   9 -15  -2   -5.70    3.70 
  -9  15   2    2.00    7.90 
   8 -15  -2   -2.40    3.60 
  -8  15   2   -1.50    7.60 
   7 -15  -2   -5.20    3.50 
  -7  15   2    0.10    7.50 
   6 -15  -2   -1.10    6.60 
   6 -15  -2    5.30    3.70 
  -6  15   2   -0.50    6.70 
   5 -15  -2   -5.40    3.70 
  -5  15   2    4.30    6.00 
   4 -15  -2    7.10    4.90 
  -4  15   2    4.90    6.10 
  -3  15   2    4.40    6.00 
  -2  15   2    0.20    5.90 
   1 -15  -2   -3.40    8.30 
   0 -15  -2   -5.70    4.50 
   0 -15  -2    3.30    7.20 
  10 -16  -2   17.00    5.10 
 -10  16   2   23.70    9.60 
   9 -16  -2   -0.80    4.20 
  -9  16   2    6.10    9.40 
   8 -16  -2    2.90    4.10 
  -8  16   2   10.90    9.40 
   7 -16  -2    0.10    4.10 
  -7  16   2   -4.60    8.60 
   6 -16  -2   -1.50    4.10 
   6 -16  -2   -6.50    7.60 
  -6  16   2    0.90    8.10 
   5 -16  -2   10.70    4.40 
   5 -16  -2    8.50    6.00 
  -5  16   2    2.50    7.40 
  -4  16   2    0.30    7.00 
  -3  16   2   -0.70    9.10 
  -2  16   2    1.60    7.90 
  -7  17   2   -3.00   10.10 
  -6  17   2    7.30   12.00 
  -5  17   2    4.10   11.20 
   3 -17   3   -0.20    5.90 
   3 -17   3    0.30    7.60 
   4 -17   3    1.40    4.90 
   4 -17   3    2.20    5.90 
   4 -17   3    1.30    4.40 
   4 -17   3    2.80    7.00 
   5 -17   3    2.40    4.50 
   5 -17   3   -2.00    5.70 
   5 -17   3    0.90    4.50 
   5 -17   3   -1.00    7.30 
   6 -17   3   -2.60    4.30 
   6 -17   3   -4.00    5.30 
   6 -17   3    1.30    4.60 
   6 -17   3    7.00    7.10 
   7 -17   3    5.70    4.70 
   7 -17   3   -2.00    5.40 
   0 -16   3   -0.50    6.70 
   1 -16   3    5.00    7.10 
   2 -16   3    3.80    6.60 
   3 -16   3    2.60    5.70 
   3 -16   3    6.50    4.20 
   3 -16   3    4.90    3.80 
   3 -16   3   -4.20    5.90 
   4 -16   3    6.40    6.00 
   4 -16   3   -1.30    3.70 
   4 -16   3    2.10    4.10 
   4 -16   3   -3.40    5.00 
   5 -16   3   42.10    8.40 
   5 -16   3   36.70    7.60 
   5 -16   3   30.80    8.70 
   5 -16   3   40.80    6.30 
   6 -16   3    4.70    3.90 
   6 -16   3    4.60    4.00 
   6 -16   3   -0.40    5.80 
   7 -16   3    5.50    4.00 
   7 -16   3    2.00    8.90 
   7 -16   3    2.90    4.70 
   8 -16   3    7.70    4.20 
   8 -16   3   10.50    5.00 
   9 -16   3    0.70    4.40 
   9 -16   3    4.60    5.00 
  -2 -15   3   -1.70    6.70 
  -1 -15   3   -0.70    6.80 
   0 -15   3    1.10    5.60 
   1 -15   3    2.00    5.50 
   2 -15   3   13.50    5.60 
   2 -15   3    9.60    3.60 
   3 -15   3   -2.60    3.10 
   3 -15   3   -5.10    5.10 
   4 -15   3    4.70    5.30 
   4 -15   3    1.50    3.20 
   4 -15   3    2.70    3.50 
   4 -15   3    3.90    4.70 
   5 -15   3   -2.60    5.30 
   5 -15   3    2.20    4.20 
   5 -15   3    0.10    3.30 
   5 -15   3   -1.70    3.50 
   6 -15   3   -4.80    5.00 
   6 -15   3    0.80    3.30 
   6 -15   3   -2.30    4.00 
   6 -15   3    3.40    3.60 
   7 -15   3    7.00    3.40 
   7 -15   3    0.40    3.50 
   7 -15   3   -2.70    3.90 
   7 -15   3   -3.10    5.20 
   8 -15   3   -0.50    4.30 
   8 -15   3    5.00    3.70 
   9 -15   3    4.50    3.90 
   9 -15   3    2.40    4.30 
  10 -15   3   -3.60    5.60 
  10 -15   3    7.30    4.10 
  -3 -14   3   -1.90    6.20 
  -2 -14   3   -2.50    6.50 
  -1 -14   3    6.20    5.20 
   0 -14   3    8.80    5.00 
   1 -14   3    0.80    4.80 
   1 -14   3   -1.30    3.00 
   2 -14   3    1.10    2.80 
   2 -14   3    6.80    4.70 
   3 -14   3    8.80    3.00 
   3 -14   3    7.10    4.50 
   4 -14   3    8.10    4.50 
   4 -14   3    7.90    3.90 
   4 -14   3    6.40    3.00 
   5 -14   3    3.00    2.80 
   5 -14   3   -0.30    3.10 
   5 -14   3    1.90    4.40 
   5 -14   3   -0.30    3.80 
   6 -14   3   16.90    3.10 
   6 -14   3    9.90    3.50 
   6 -14   3    8.00    4.00 
   6 -14   3   17.20    5.10 
   7 -14   3    1.90    4.00 
   7 -14   3    1.50    3.30 
   8 -14   3    9.30    3.40 
   8 -14   3    1.90    4.20 
   9 -14   3   -0.10    4.20 
   9 -14   3    9.50    3.70 
  10 -14   3    0.70    4.60 
  10 -14   3    2.20    3.80 
  11 -14   3    7.00    4.00 
  -4 -13   3    2.80    6.30 
  -3 -13   3   -6.90    5.40 
  -2 -13   3   -0.90    4.90 
  -1 -13   3    3.40    4.60 
   0 -13   3    3.80    2.80 
   0 -13   3   11.30    4.50 
   1 -13   3    6.40    4.10 
   1 -13   3    3.90    2.60 
   2 -13   3    6.80    2.50 
   2 -13   3    0.90    4.10 
   3 -13   3    0.10    2.40 
   3 -13   3   -0.20    3.80 
   4 -13   3   11.00    4.10 
   4 -13   3    4.00    2.50 
   4 -13   3    1.20    3.80 
   5 -13   3   -1.20    4.10 
   5 -13   3    2.90    4.70 
  -6  13  -3    1.60    7.30 
   6 -13   3    2.70    2.90 
   6 -13   3    2.50    5.80 
  -7  13  -3   -1.30    5.90 
   7 -13   3   -6.10    5.20 
  -8  13  -3   11.00    5.00 
   8 -13   3    9.60    6.10 
   8 -13   3    5.40    3.10 
   9 -13   3    6.40    5.30 
   9 -13   3    7.10    3.20 
  10 -13   3   -5.20    4.20 
  10 -13   3    3.40    3.30 
  11 -13   3    2.70    3.70 
  12 -13   3   13.70    4.70 
  -6 -12   3    5.90    6.20 
  -5 -12   3    2.50    6.30 
  -4 -12   3    0.10    4.80 
  -3 -12   3    2.50    4.70 
  -2 -12   3   -1.00    4.20 
  -1 -12   3   19.40    4.80 
   0 -12   3   18.80    4.80 
   0 -12   3   21.40    3.90 
   1 -12   3   35.70    4.70 
   1 -12   3   32.10    6.00 
   2 -12   3   12.60    3.70 
   2 -12   3   13.50    2.60 
   3 -12   3  307.37   32.60 
   3 -12   3  309.47   31.70 
   4 -12   3  327.67   36.00 
   4 -12   3  343.47   35.70 
   4 -12   3  336.87   34.50 
  -5  12  -3    8.70    5.00 
   5 -12   3    3.80    3.90 
  -6  12  -3   25.50    5.50 
   6 -12   3   24.10    4.80 
   6 -12   3   20.40    5.90 
  -7  12  -3   -1.70    4.30 
   7 -12   3   -0.20    4.00 
   7 -12   3   -3.40    2.50 
  -8  12  -3   23.90    5.20 
   8 -12   3   16.00    5.10 
   8 -12   3   15.90    3.50 
   9 -12   3   15.00    3.30 
   9 -12   3    8.90    5.60 
  10 -12   3    5.10    6.10 
  10 -12   3    9.80    3.20 
  11 -12   3   17.10    4.10 
  12 -12   3    0.50    3.80 
  -7 -11   3   -2.00    6.00 
  -6 -11   3   23.90    7.40 
  -5 -11   3   -0.80    4.90 
  -4 -11   3    5.60    4.10 
  -3 -11   3    0.70    3.70 
  -2 -11   3    9.70    3.80 
  -1 -11   3   17.90    4.30 
   0 -11   3    7.90    3.40 
   0 -11   3   10.90    2.30 
   1 -11   3   17.90    4.70 
   1 -11   3   24.40    3.50 
   2 -11   3    8.20    2.40 
   2 -11   3    5.80    3.50 
   3 -11   3   -1.20    5.00 
   3 -11   3    3.20    3.20 
   3 -11   3   -1.60    2.90 
  -4  11  -3    4.40    3.70 
   4 -11   3   -1.70    2.60 
  -5  11  -3   -2.10    3.70 
   5 -11   3    1.50    2.60 
  -6  11  -3   21.90    4.50 
   6 -11   3   15.50    3.20 
   6 -11   3   17.40    4.50 
  -7  11  -3    9.10    4.30 
   7 -11   3    5.20    2.60 
   7 -11   3    7.10    3.10 
  -8  11  -3   20.00    5.00 
   8 -11   3   11.90    4.10 
   8 -11   3   17.50    4.10 
   9 -11   3   -0.40    2.70 
   9 -11   3   -2.70    3.30 
  10 -11   3   -0.50    2.80 
  10 -11   3   -6.20    6.00 
  11 -11   3   -1.90    3.30 
  12 -11   3    0.10    3.80 
  13 -11   3    1.00    4.00 
  -8 -10   3    4.60    6.00 
  -7 -10   3   18.60    6.80 
  -6 -10   3    2.90    4.50 
  -5 -10   3   -1.00    3.80 
  -4 -10   3    3.40    3.60 
  -3 -10   3   -0.60    3.30 
  -2 -10   3    8.20    3.20 
  -1 -10   3   78.59    8.60 
  -1 -10   3   76.99    9.50 
   0 -10   3   -0.40    2.90 
   0 -10   3    0.20    1.80 
   1 -10   3    3.50    3.30 
   1 -10   3    4.60    2.00 
   2 -10   3   -1.00    2.30 
   2 -10   3    2.30    3.60 
   3 -10   3   16.10    4.10 
   3 -10   3   10.90    3.10 
  -4  10  -3   22.60    4.40 
   4 -10   3   19.20    4.20 
  -5  10  -3    0.60    3.10 
   5 -10   3    0.60    2.20 
  -6  10  -3   -3.20    3.10 
   6 -10   3    6.50    2.50 
   7 -10   3    8.50    2.50 
   7 -10   3   14.40    4.00 
  -8  10  -3    3.30    3.60 
   8 -10   3    5.20    2.40 
   8 -10   3    4.80    2.90 
   9 -10   3    2.90    2.60 
   9 -10   3   -1.90    3.10 
  10 -10   3   38.60    9.60 
  10 -10   3   62.39    7.10 
  11 -10   3   85.79    9.10 
  11 -10   3   45.20   11.70 
  12 -10   3   -0.30    3.40 
  12 -10   3   -5.40    4.90 
  -8  -9   3    0.50    6.00 
  -7  -9   3   10.20    4.50 
  -6  -9   3    0.60    3.70 
  -5  -9   3    6.00    3.60 
  -4  -9   3    6.00    3.20 
  -3  -9   3   45.90    6.30 
  -2  -9   3    1.30    2.60 
  -1  -9   3   17.60    2.80 
  -1  -9   3   14.00    3.80 
   0  -9   3    2.70    2.00 
   0  -9   3    4.80    3.40 
   1  -9   3    0.80    2.80 
   1  -9   3    4.60    1.80 
   2  -9   3    2.80    2.50 
   2  -9   3   -0.70    1.50 
  -3   9  -3   16.40    3.60 
   3  -9   3   15.60    3.80 
  -4   9  -3   18.20    3.80 
   4  -9   3   17.50    3.60 
  -5   9  -3   -1.10    2.70 
   5  -9   3   -1.10    2.00 
  -6   9  -3   -2.10    2.90 
   6  -9   3   -0.70    2.10 
  -7   9  -3    4.90    3.30 
   7  -9   3   -0.50    2.60 
   7  -9   3    5.70    2.50 
   7  -9   3    6.30    2.40 
   8  -9   3    0.50    2.60 
   8  -9   3   -1.30    2.10 
   9  -9   3    3.60    2.40 
   9  -9   3    1.10    3.70 
  10  -9   3    0.40    2.60 
  11  -9   3   10.40    3.30 
  11  -9   3    9.50    6.40 
  12  -9   3    8.00    3.50 
  12  -9   3   11.90    4.80 
  -9  -8   3   10.60    5.90 
  -8  -8   3    0.60    4.40 
  -7  -8   3   -1.60    3.70 
  -6  -8   3   10.20    3.60 
  -5  -8   3    6.70    3.00 
  -4  -8   3   12.90    3.50 
  -3  -8   3  117.69   13.10 
  -2  -8   3   37.70    5.20 
  -1  -8   3    6.30    2.20 
  -1  -8   3    6.60    3.60 
   0  -8   3    6.20    2.40 
   0  -8   3    4.40    1.50 
   1  -8   3   13.00    2.90 
   1  -8   3   11.20    2.20 
   2  -8   3 1663.93  166.88 
   2  -8   3 1641.24  166.28 
  -3   8  -3  259.77   26.40 
   3  -8   3  248.08   26.80 
  -4   8  -3   38.70    4.90 
   4  -8   3   31.70    4.80 
  -5   8  -3   42.10    5.60 
   5  -8   3   37.20    5.40 
   5  -8   3   46.30    5.70 
  -6   8  -3   56.99    6.60 
   6  -8   3   40.20    5.90 
   6  -8   3   56.69    6.70 
   6  -8   3   55.99    6.70 
  -7   8  -3   16.40    3.60 
   7  -8   3   13.80    3.70 
   7  -8   3   10.90    3.30 
   8  -8   3    1.10    2.80 
   8  -8   3    5.60    2.10 
   9  -8   3    3.40    2.40 
   9  -8   3    2.90    3.80 
  10  -8   3   42.70    6.10 
  10  -8   3   37.90    8.10 
  11  -8   3   -0.20    5.10 
  11  -8   3   -0.40    2.80 
  12  -8   3   36.30    7.30 
 -10  -7   3    1.90    6.20 
  -9  -7   3   -3.30    4.20 
  -8  -7   3    8.60    4.00 
  -7  -7   3    7.30    3.50 
  -6  -7   3   27.20    4.60 
  -5  -7   3    8.80    2.70 
  -4  -7   3   14.20    3.30 
  -3  -7   3    5.20    2.20 
  -2  -7   3   28.70    5.00 
  -1  -7   3    3.40    1.40 
  -1  -7   3    3.60    2.30 
   0  -7   3   -1.10    1.20 
   0  -7   3    0.80    1.90 
   1  -7   3    3.50    1.30 
   1  -7   3    3.00    2.10 
   2  -7   3    3.20    2.00 
   2  -7   3   -0.90    1.60 
   2  -7   3    1.50    1.20 
  -3   7  -3    5.20    2.20 
   3  -7   3    4.30    1.90 
  -4   7  -3    3.00    1.90 
   4  -7   3    0.60    2.00 
   4  -7   3    0.20    1.70 
  -5   7  -3    3.90    2.30 
   5  -7   3    7.80    2.10 
   6  -7   3   16.30    3.60 
   6  -7   3   18.10    3.70 
   7  -7   3    4.40    2.20 
   7  -7   3   -0.40    2.20 
   8  -7   3    6.80    3.40 
   8  -7   3    2.40    2.90 
   9  -7   3   -0.40    2.20 
   9  -7   3   -4.10    3.70 
  10  -7   3   -1.30    5.30 
  10  -7   3    0.40    2.50 
  11  -7   3   29.40    6.90 
  11  -7   3    7.30    3.20 
 -10  -6   3   -2.30    4.90 
  -9  -6   3   12.50    4.00 
  -8  -6   3   10.50    3.80 
  -7  -6   3   14.90    3.50 
  -6  -6   3   -1.10    2.50 
  -5  -6   3   12.80    3.20 
  -4  -6   3    2.40    2.10 
  -3  -6   3    5.40    2.80 
  -2  -6   3   53.19    6.60 
  -1  -6   3   11.90    2.70 
   0  -6   3    4.90    1.20 
   0  -6   3    5.10    1.90 
   1  -6   3  176.78   18.20 
   1  -6   3  178.48   18.60 
   2  -6   3   19.40    3.50 
   2  -6   3   20.10    3.00 
   2  -6   3   20.50    2.50 
  -3   6  -3   63.39    7.10 
   3  -6   3   68.09    7.50 
   3  -6   3   61.29    6.90 
  -4   6  -3  202.58   21.10 
   4  -6   3  209.38   21.00 
   4  -6   3  204.58   21.60 
   5  -6   3   42.10    5.50 
   6  -6   3    2.50    1.80 
   6  -6   3    2.00    1.90 
   7  -6   3   10.30    2.70 
   7  -6   3   13.90    3.50 
   8  -6   3    1.50    2.40 
   8  -6   3    5.10    3.70 
   9  -6   3  249.48   26.80 
   9  -6   3  249.68   26.70 
  10  -6   3    2.70    2.60 
  10  -6   3    5.50    5.50 
  11  -6   3   -1.00    2.70 
  11  -6   3    8.90    4.20 
 -11  -5   3    2.70    6.10 
 -10  -5   3    2.60    4.40 
  -9  -5   3    1.30    3.60 
  -8  -5   3    3.90    3.00 
  -7  -5   3   38.80    5.30 
  -6  -5   3   33.10    4.50 
  -5  -5   3   21.80    3.40 
  -4  -5   3    5.10    2.70 
  -3  -5   3    0.20    1.90 
  -2  -5   3    4.10    1.80 
  -1  -5   3   16.00    2.80 
   0  -5   3   16.10    2.70 
   1  -5   3   77.69    9.00 
   1  -5   3   87.39    9.20 
   1  -5   3   86.49    8.70 
   2  -5   3    4.20    1.40 
   2  -5   3    5.40    1.60 
   2  -5   3    4.10    1.60 
   2  -5   3    6.60    1.10 
   3  -5   3   13.10    2.10 
   3  -5   3   12.90    2.50 
   4  -5   3    4.70    1.80 
   5  -5   3    5.90    2.00 
   6  -5   3   13.20    3.50 
   6  -5   3    7.70    2.00 
   7  -5   3    2.50    1.90 
   7  -5   3    3.10    3.10 
   8  -5   3   45.40    7.10 
   8  -5   3   40.10    5.60 
  -9   5  -3   45.50    5.20 
   9  -5   3   34.60    7.40 
   9  -5   3   41.00    6.80 
  10  -5   3    0.10    2.70 
  10  -5   3    6.90    6.20 
 -12  -4   3   -3.60    8.40 
 -11  -4   3   -1.10    4.50 
 -10  -4   3    1.20    3.70 
  -9  -4   3   21.50    4.70 
  -8  -4   3    7.80    2.90 
  -7  -4   3   15.00    3.30 
  -5  -4   3   75.79    9.10 
  -4  -4   3   96.49   10.70 
  -3  -4   3    2.20    1.70 
  -2  -4   3   66.09    7.50 
  -1  -4   3   20.60    3.10 
   0  -4   3  145.49   14.60 
   0  -4   3  132.89   14.50 
   1  -4   3  281.67   27.90 
   1  -4   3  264.97   27.80 
   1  -4   3  272.37   28.20 
   2  -4   3  216.98   22.30 
   2  -4   3  220.68   22.30 
   2  -4   3  220.58   22.80 
   3  -4   3    1.80    1.30 
   4  -4   3  129.59   13.80 
   5  -4   3   20.10    3.50 
   6  -4   3    0.50    1.50 
   6  -4   3    5.30    2.90 
  -7   4  -3   24.50    3.60 
  -7   4  -3   23.40    3.70 
   7  -4   3   19.70    3.80 
   7  -4   3   28.90    5.50 
  -8   4  -3    7.70    3.30 
  -8   4  -3   10.60    2.80 
   8  -4   3    4.10    2.10 
   8  -4   3    9.90    3.70 
  -9   4  -3    1.80    2.80 
   9  -4   3    3.60    4.00 
   9  -4   3    3.80    2.20 
 -10   4  -3    7.30    3.30 
  10  -4   3   13.60    4.20 
 -12  -3   3    0.50    6.60 
 -10  -3   3    4.60    3.70 
  -9  -3   3   13.40    3.80 
  -8  -3   3   32.50    4.70 
  -7  -3   3   12.80    2.90 
  -6  -3   3   15.70    3.80 
  -5  -3   3    1.40    2.00 
  -4  -3   3   21.20    3.30 
  -3  -3   3    2.30    1.40 
  -2  -3   3  108.79   11.60 
   1   3  -3   11.30    2.20 
  -1  -3   3   13.20    2.20 
   0   3  -3  186.78   18.80 
   0   3  -3  186.38   19.10 
   0  -3   3  183.58   19.10 
  -1   3  -3    6.10    1.00 
  -1   3  -3    5.70    1.40 
   1  -3   3    7.20    1.80 
   1  -3   3    5.80    1.40 
   2  -3   3   17.00    2.80 
   3  -3   3    1.20    1.30 
   4  -3   3    3.40    1.80 
   5  -3   3   29.00    4.00 
   5  -3   3   30.40    4.80 
  -6   3  -3    0.50    2.10 
  -6   3  -3    1.10    1.60 
   6  -3   3    3.10    2.90 
   6  -3   3    0.00    1.40 
  -7   3  -3    2.10    3.00 
  -7   3  -3    2.40    2.00 
   7  -3   3    2.50    3.20 
   7  -3   3    1.30    1.70 
  -8   3  -3   10.70    2.90 
   8  -3   3    7.70    3.50 
   8  -3   3   10.90    2.40 
   9  -3   3    0.50    4.80 
   9  -3   3   -0.90    2.10 
 -10   3  -3   27.60    6.90 
  10  -3   3   53.79    8.70 
  10  -3   3   78.89    8.70 
  11  -3   3   43.50    8.40 
 -13  -2   3   -7.30    7.70 
 -12  -2   3   -2.50    5.80 
  10   2  -3   33.00    6.30 
 -10  -2   3   26.70    5.10 
   9   2  -3    4.10    5.00 
   8   2  -3   -2.10    3.10 
  -8  -2   3   -1.80    2.30 
   7   2  -3    0.30    2.60 
  -7  -2   3    2.50    2.70 
   6   2  -3  287.27   29.60 
  -6  -2   3  274.27   29.10 
  -5  -2   3   48.00    5.80 
  -4  -2   3   29.30    3.80 
  -3  -2   3  105.69   11.20 
  -2  -2   3  141.89   14.80 
   1   2  -3    1.20    1.00 
  -1  -2   3    0.40    1.00 
   0   2  -3    7.00    1.20 
   0  -2   3    6.80    1.30 
   0  -2   3    6.60    1.90 
  -1   2  -3    3.50    0.80 
   1  -2   3    2.90    1.10 
   2  -2   3  443.96   45.10 
   3  -2   3 1194.18  120.39 
  -4   2  -3   -0.30    0.90 
  -4   2  -3   -0.60    1.40 
   4  -2   3    3.80    2.10 
  -5   2  -3   18.50    3.00 
  -5   2  -3   16.80    2.50 
   5  -2   3   16.10    2.90 
   5  -2   3   21.70    4.30 
  -6   2  -3   21.30    2.90 
  -6   2  -3   20.60    4.10 
   6  -2   3   17.50    3.20 
   6  -2   3   18.60    4.60 
  -7   2  -3    9.00    2.50 
   7  -2   3    6.40    1.90 
   7  -2   3    2.50    2.90 
   8  -2   3   44.20    7.70 
  -9   2  -3   15.70    3.70 
   9  -2   3   26.20    7.50 
   9  -2   3   16.30    3.50 
 -10   2  -3   -2.50    3.60 
  10  -2   3    0.80    3.10 
  10  -2   3   12.00    5.10 
 -11   2  -3   15.80    6.30 
  11  -2   3   16.00    4.40 
 -12  -1   3   -6.40    5.20 
  11   1  -3    5.20    4.40 
 -11  -1   3   -1.20    3.90 
  10   1  -3    9.00    4.60 
  10   1  -3    1.40    2.90 
   9   1  -3   52.69    8.40 
   9   1  -3   50.59    6.40 
  -9  -1   3   55.79    6.80 
   8   1  -3   32.50    5.40 
   8   1  -3   31.60    4.20 
  -8  -1   3   33.40    5.10 
   7   1  -3   -0.80    2.40 
  -7  -1   3    1.90    2.10 
   6   1  -3   -0.40    2.20 
   6   1  -3    2.00    1.00 
  -6  -1   3    0.70    1.60 
   5   1  -3   35.40    4.00 
   5   1  -3   32.90    4.70 
  -5  -1   3   37.10    4.40 
   4   1  -3    0.80    0.90 
  -4  -1   3    1.30    1.40 
  -3  -1   3    1.90    1.20 
   2   1  -3   26.10    3.00 
  -2  -1   3   25.30    3.20 
   1   1  -3   17.30    2.20 
  -1  -1   3   19.40    2.50 
   0   1  -3   31.20    3.40 
   0  -1   3   30.30    3.70 
   0  -1   3   32.20    3.60 
  -1   1  -3   58.99    6.50 
   1  -1   3   66.49    6.90 
   1  -1   3   62.89    6.50 
  -2   1  -3    2.10    1.00 
   2  -1   3    3.40    1.00 
  -3   1  -3  101.69   10.40 
  -3   1  -3   99.19   10.10 
  -3   1  -3   97.69   10.30 
   3  -1   3   98.99   10.90 
  -4   1  -3  133.49   13.20 
  -4   1  -3  123.49   13.10 
   4  -1   3  128.59   13.20 
   4  -1   3  119.49   13.60 
  -5   1  -3    8.00    2.70 
  -5   1  -3    6.50    1.70 
   5  -1   3    3.30    1.50 
   5  -1   3    0.30    2.30 
  -6   1  -3    4.80    1.80 
   6  -1   3    4.80    1.70 
   6  -1   3    1.30    2.60 
  -7   1  -3    1.90    2.00 
   7  -1   3    2.80    1.70 
  -8   1  -3   31.90    4.50 
   8  -1   3   22.20    6.50 
   8  -1   3   23.70    4.50 
  -9   1  -3   39.80    6.10 
   9  -1   3   53.99    8.20 
   9  -1   3   39.00    5.90 
 -10   1  -3   -2.00    4.90 
  10  -1   3    3.10    4.70 
  10  -1   3    2.90    2.70 
 -11   1  -3    7.60    5.00 
  11  -1   3    6.80    4.40 
  12  -1   3   47.30    9.60 
  12   0  -3   34.10    7.40 
  12   0  -3   30.90    5.90 
 -12   0   3   23.20    7.20 
  11   0  -3    8.40    3.10 
  11   0  -3   13.00    4.90 
 -11   0   3   10.80    4.40 
  10   0  -3   19.10    6.10 
  10   0  -3   13.80    3.40 
 -10   0   3   14.00    3.90 
   9   0  -3    6.90    3.50 
   9   0  -3    8.20    2.10 
  -9   0   3    5.40    3.30 
   8   0  -3   -0.60    2.70 
   8   0  -3   -0.20    1.50 
  -8   0   3   -1.00    3.10 
   7   0  -3   20.20    4.00 
   7   0  -3   18.80    2.90 
  -7   0   3   19.80    3.20 
   6   0  -3   96.19   10.00 
   6   0  -3   91.49   10.60 
  -6   0   3   95.09   10.20 
   5   0  -3   95.59   11.20 
   5   0  -3  109.29   10.90 
  -5   0   3  105.09   11.00 
   4   0  -3  232.18   23.30 
  -4   0   3  224.18   23.40 
   3   0  -3  290.37   29.50 
   3   0  -3  283.07   29.60 
  -3   0   3  298.47   29.60 
   2   0  -3  362.46   36.60 
  -2   0   3  361.86   36.70 
   1   0  -3  108.99   12.20 
   1   0  -3  142.29   12.20 
  -1   0   3  104.39   12.20 
  -1   0   3  118.89   12.30 
   0   0  -3 2781.22  276.27 
   0   0   3 2743.13  276.37 
   0   0   3 2728.33  276.27 
  -1   0  -3   81.89    9.50 
   1   0   3   93.29    9.60 
   1   0   3   98.89    9.80 
  -2   0  -3    3.50    1.30 
   2   0   3    3.10    1.40 
  -3   0  -3    5.20    1.80 
   3   0   3    5.20    2.40 
   3   0   3    6.70    1.80 
  -4   0  -3  301.17   31.00 
  -4   0  -3  307.27   31.40 
  -4   0  -3  284.77   31.50 
   4   0   3  316.77   31.30 
   4   0   3  324.57   31.80 
  -5   0  -3   50.99    5.80 
   5   0   3   53.69    5.70 
   5   0   3   44.20    6.80 
  -6   0  -3    2.10    1.90 
   6   0   3    2.90    1.60 
  -7   0  -3    4.20    2.20 
   7   0   3    3.70    1.90 
  -8   0  -3  140.09   14.10 
   8   0   3  113.69   15.30 
   8   0   3  128.59   13.70 
  -9   0  -3    8.50    4.90 
   9   0   3    5.00    2.40 
   9   0   3   11.20    4.40 
 -10   0  -3    7.70    4.10 
  10   0   3    4.50    2.90 
  10   0   3   14.80    5.50 
  11   0   3   -0.10    3.80 
 -12   0  -3   -6.90    5.10 
  12   0   3   13.00    6.40 
  13  -1  -3    1.10    5.60 
  13  -1  -3   -1.50    3.40 
  12  -1  -3    5.30    4.80 
  12  -1  -3    0.50    2.80 
 -12   1   3   -3.10    5.10 
  11  -1  -3    8.90    2.70 
  11  -1  -3   17.70    8.20 
  10  -1  -3    6.40    2.80 
  10  -1  -3    5.50    3.90 
 -10   1   3    2.90    3.40 
   9  -1  -3    9.70    3.60 
   9  -1  -3   11.90    3.00 
  -9   1   3   12.40    5.30 
   8  -1  -3   13.20    2.50 
   8  -1  -3    5.40    2.90 
  -8   1   3   12.00    3.30 
   7  -1  -3   10.70    2.80 
   7  -1  -3   13.30    2.50 
  -7   1   3   16.60    2.90 
   6  -1  -3    8.00    2.20 
   6  -1  -3   10.20    2.00 
  -6   1   3    9.00    2.30 
   5  -1  -3    1.00    1.50 
   5  -1  -3    1.60    1.00 
  -5   1   3    2.00    1.70 
   4  -1  -3   12.30    2.10 
   4  -1  -3   12.70    2.30 
  -4   1   3   16.40    2.70 
   3  -1  -3   54.09    5.80 
   3  -1  -3   56.69    5.90 
  -3   1   3   46.40    5.70 
  -3   1   3   57.29    6.20 
   2  -1  -3   51.29    5.90 
   2  -1  -3   62.29    6.20 
  -2   1   3   56.19    6.40 
  -2   1   3   54.79    5.90 
   1  -1  -3   49.70    5.60 
   1  -1  -3   48.70    5.40 
  -1   1   3   55.29    5.80 
  -1   1   3   54.99    5.50 
   0  -1  -3   12.00    2.00 
   0   1   3   13.90    2.40 
  -1  -1  -3    7.40    1.60 
   1   1   3    7.60    2.00 
   1   1   3   10.10    2.60 
  -2  -1  -3   85.89    9.20 
   2   1   3   86.09    9.30 
   2   1   3   86.79    9.60 
   3   1   3   27.30    4.50 
   3   1   3   30.40    3.60 
   3   1   3   33.30    3.90 
  -4  -1  -3    3.90    1.20 
  -4  -1  -3    5.70    1.80 
   4   1   3    0.60    2.20 
   4   1   3    4.40    1.20 
  -5  -1  -3    4.50    2.00 
   5   1   3    4.40    1.70 
  -6  -1  -3    0.00    1.90 
   6   1   3    1.90    1.60 
  -7  -1  -3   36.10    4.80 
   7   1   3   21.70    6.50 
   7   1   3   31.60    4.30 
  -8  -1  -3   23.10    6.20 
   8   1   3   12.90    3.00 
   8   1   3   21.10    4.90 
  -9  -1  -3    1.10    4.10 
   9   1   3    2.20    2.30 
   9   1   3    9.20    4.90 
 -10  -1  -3    5.40    4.80 
  10   1   3   -1.60    2.50 
  10   1   3    9.20    4.60 
 -11  -1  -3   -1.10    5.30 
  11   1   3   10.50    5.50 
 -12  -1  -3   -3.30    5.50 
  12   1   3   15.10    6.40 
  14  -2  -3   -2.90    4.10 
  14  -2  -3    9.90    6.70 
 -14   2   3   -8.40    7.40 
  13  -2  -3    0.90    3.30 
  13  -2  -3    7.30    5.50 
 -13   2   3   -2.90    6.40 
  12  -2  -3    8.10    5.70 
  12  -2  -3    3.50    2.70 
 -12   2   3   -4.50    5.10 
  11  -2  -3   -1.70    2.30 
  11  -2  -3    7.10    4.70 
  10  -2  -3    1.10    3.40 
  10  -2  -3    1.00    2.80 
 -10   2   3   -2.80    3.20 
   9  -2  -3   26.40    3.70 
   9  -2  -3   17.80    4.70 
  -9   2   3   27.40    5.30 
   8  -2  -3   -1.00    1.40 
   8  -2  -3   -0.60    2.60 
  -8   2   3    2.30    2.50 
   7  -2  -3   38.00    5.50 
   7  -2  -3   42.10    5.00 
  -7   2   3   43.90    5.30 
   6  -2  -3   -1.80    1.70 
   6  -2  -3    0.70    1.10 
  -6   2   3    1.10    1.70 
   5  -2  -3    4.20    1.20 
   5  -2  -3    2.30    1.30 
  -5   2   3    4.70    2.00 
   4  -2  -3   26.00    3.30 
   4  -2  -3   23.70    3.10 
  -4   2   3   25.40    3.10 
  -4   2   3   30.90    3.70 
   3  -2  -3   19.50    3.20 
   3  -2  -3   29.10    3.50 
  -3   2   3   32.20    3.80 
   2  -2  -3    5.50    1.50 
   2  -2  -3    3.40    1.10 
  -2   2   3    5.50    2.00 
   1  -2  -3   15.90    2.40 
  -1   2   3    7.70    2.10 
   0  -2  -3   55.49    6.00 
   0   2   3   44.90    6.20 
   0   2   3   54.39    5.40 
   0   2   3   56.49    6.00 
  -1  -2  -3   75.29    9.50 
   1   2   3   91.89   10.00 
   1   2   3  100.39    9.80 
   2   2   3   91.99   10.90 
   2   2   3  111.39   11.30 
   3   2   3  123.79   13.30 
   3   2   3  126.09   13.60 
  -4  -2  -3  158.88   16.90 
  -4  -2  -3  158.48   17.40 
   4   2   3  174.78   17.90 
   4   2   3  165.68   16.80 
  -5  -2  -3   10.90    1.90 
  -5  -2  -3   10.10    2.30 
   5   2   3   10.10    2.10 
   5   2   3    2.70    2.90 
  -6  -2  -3    3.10    2.40 
   6   2   3    1.60    1.70 
  -7  -2  -3  576.14   62.89 
   7   2   3  567.84   62.09 
   7   2   3  699.43   63.79 
  -8  -2  -3   21.80    4.90 
   8   2   3   26.70    5.70 
   8   2   3   19.70    3.90 
  -9  -2  -3    9.80    4.30 
   9   2   3    3.40    2.10 
   9   2   3    8.10    4.20 
 -10  -2  -3    1.00    4.80 
  10   2   3    6.30    4.90 
 -11  -2  -3    6.20    6.30 
  11   2   3   10.70    5.80 
  14  -3  -3   11.90    6.40 
  14  -3  -3   -4.50    3.90 
 -14   3   3   -2.70    6.90 
  13  -3  -3    5.20    5.50 
  13  -3  -3   -2.40    3.00 
 -13   3   3   -4.40    5.50 
  12  -3  -3   -0.80    2.40 
  12  -3  -3    5.00    6.50 
 -12   3   3   -0.50    4.90 
  11  -3  -3   16.50    4.00 
  11  -3  -3   24.40    5.10 
 -11   3   3   16.40    5.20 
  10  -3  -3    0.80    3.00 
  10  -3  -3    3.50    3.40 
 -10   3   3    1.50    5.40 
   9  -3  -3   16.00    4.60 
   9  -3  -3   19.00    3.40 
  -9   3   3   15.70    4.30 
   8  -3  -3   23.20    4.60 
   8  -3  -3   24.10    3.60 
  -8   3   3   24.50    4.20 
   7  -3  -3    0.20    1.80 
   7  -3  -3    0.00    1.30 
  -7   3   3   -0.40    2.00 
   6  -3  -3   35.90    4.30 
   6  -3  -3   32.40    4.30 
  -6   3   3   39.30    4.70 
   5  -3  -3    2.60    1.10 
   5  -3  -3    2.10    1.10 
  -5   3   3    0.80    1.00 
  -5   3   3    2.50    1.60 
   4  -3  -3   12.00    2.00 
  -4   3   3   11.40    2.30 
   2  -3  -3   13.10    1.80 
   2  -3  -3    9.80    1.70 
   2  -3  -3    8.80    2.30 
  -2   3   3   12.20    2.40 
  -2   3   3   13.20    1.80 
   1  -3  -3   18.40    2.10 
  -1   3   3   12.30    2.70 
  -1   3   3   20.60    2.90 
   0   3   3   22.00    3.20 
   0   3   3   16.20    3.20 
   1   3   3    0.70    1.60 
   1   3   3   -2.20    1.70 
   2   3   3   29.00    4.60 
   2   3   3   36.20    4.40 
   3   3   3    3.00    1.90 
   3   3   3    3.60    2.20 
  -4  -3  -3    1.40    2.00 
  -4  -3  -3    3.00    1.30 
   4   3   3   -1.70    2.60 
  -5  -3  -3    4.50    1.50 
  -5  -3  -3    4.10    2.50 
   5   3   3   -2.10    3.30 
  -6  -3  -3   11.60    4.80 
   6   3   3    8.50    4.60 
  -7  -3  -3   38.50    5.70 
   7   3   3   32.10    5.70 
  -8  -3  -3   20.50    5.10 
   8   3   3   25.50    5.60 
  -9  -3  -3    3.00    4.30 
   9   3   3    3.90    4.30 
 -10  -3  -3    4.00    5.20 
  10   3   3    8.40    5.00 
 -11  -3  -3    5.40    7.10 
  11   3   3    4.60    5.60 
  14  -4  -3    8.40    8.10 
  14  -4  -3    2.10    3.70 
 -14   4   3   11.00    6.40 
  13  -4  -3   11.00    7.80 
  13  -4  -3   -1.20    2.80 
 -13   4   3    6.60    5.90 
  12  -4  -3    7.20    2.70 
  12  -4  -3   12.60    4.40 
 -12   4   3   12.60    5.00 
  11  -4  -3    6.80    4.00 
  11  -4  -3    1.20    2.20 
 -11   4   3    3.00    4.30 
  10  -4  -3   27.10    4.80 
  10  -4  -3   32.30    5.70 
 -10   4   3   26.30    6.60 
   9  -4  -3   -0.20    2.60 
   9  -4  -3   -1.20    2.00 
  -9   4   3    0.70    2.70 
   8  -4  -3    7.10    2.00 
   8  -4  -3    7.50    2.70 
  -8   4   3   10.10    2.80 
   7  -4  -3   27.40    4.10 
   7  -4  -3   31.00    3.90 
  -7   4   3   28.40    4.20 
   6  -4  -3  699.23   67.19 
   6  -4  -3  656.43   67.49 
  -6   4   3  641.94   67.49 
   5  -4  -3   35.90    4.60 
   5  -4  -3   46.60    4.30 
  -5   4   3   36.10    4.80 
  -5   4   3   37.20    4.30 
   4  -4  -3   42.60    5.00 
  -4   4   3   43.90    5.20 
   3  -4  -3   44.40    5.50 
   3  -4  -3   46.20    5.10 
  -3   4   3   56.19    5.80 
   2  -4  -3  363.46   38.00 
  -2   4   3  386.26   38.40 
   1  -4  -3   84.49    8.60 
  -1   4   3   77.79    8.90 
  -1   4   3   86.49    9.30 
   0   4   3    0.10    1.60 
   0   4   3    0.80    1.50 
   1   4   3   -0.20    1.60 
   1   4   3    2.30    1.80 
   2   4   3   18.00    3.20 
   2   4   3   15.30    3.30 
   3   4   3   28.20    4.00 
   3   4   3   21.40    4.20 
  -4  -4  -3    1.50    2.70 
  -4  -4  -3    3.30    1.70 
  -5  -4  -3   24.70    4.30 
  -5  -4  -3   27.10    6.10 
   5   4   3   18.80    5.20 
  -6  -4  -3   84.49    9.50 
   6   4   3   70.79    9.60 
  -7  -4  -3   89.69   10.80 
   7   4   3   91.09   11.00 
  -8  -4  -3   -0.90    3.70 
   8   4   3    2.80    4.00 
  -9  -4  -3    6.70    5.10 
   9   4   3    0.40    4.20 
 -10  -4  -3   -3.00    5.60 
  10   4   3    6.10    5.40 
 -14   5   3   34.60    8.20 
  13  -5  -3   -0.30    2.90 
  13  -5  -3    9.90    5.80 
 -13   5   3    5.00    5.00 
  12  -5  -3    3.50    4.50 
  12  -5  -3    1.40    2.40 
 -12   5   3    7.30    4.40 
  11  -5  -3   21.60    6.00 
  11  -5  -3   12.90    2.80 
 -11   5   3   17.50    5.10 
  10  -5  -3    6.30    2.00 
  10  -5  -3   16.50    4.70 
 -10   5   3    4.30    4.20 
   9  -5  -3   -2.10    2.70 
   9  -5  -3    0.90    2.20 
  -9   5   3    1.80    2.50 
   8  -5  -3    0.00    1.90 
   8  -5  -3    2.30    1.60 
  -8   5   3    0.30    2.10 
   7  -5  -3   67.89    8.00 
   7  -5  -3   82.29    7.90 
  -7   5   3   64.99    8.20 
   6  -5  -3   13.60    2.60 
  -6   5   3    9.30    2.70 
  -6   5   3    9.50    2.70 
   5  -5  -3   25.60    3.40 
   5  -5  -3   22.10    2.90 
  -5   5   3   27.40    3.60 
   4  -5  -3    0.40    1.00 
   4  -5  -3   -0.80    1.10 
   4  -5  -3   -0.40    0.80 
  -4   5   3   -0.90    1.60 
   3  -5  -3    1.90    1.10 
  -3   5   3    2.90    1.70 
   2  -5  -3   -0.20    1.00 
  -2   5   3    1.40    1.70 
   1  -5  -3   75.39    8.10 
  -1   5   3   79.59    8.60 
  -1   5   3   75.89    8.80 
   0   5   3   37.20    4.90 
   0   5   3   36.60    4.80 
   1   5   3   50.09    6.30 
   1   5   3   52.49    6.40 
   2   5   3   12.00    3.30 
   2   5   3   11.50    2.90 
   3   5   3    2.60    3.00 
   3   5   3    1.40    2.50 
  -4  -5  -3    5.00    3.00 
  -4  -5  -3    1.40    1.80 
   4   5   3   -1.90    2.90 
  -5  -5  -3    2.50    1.80 
  -5  -5  -3    2.90    2.90 
   5   5   3   -3.30    2.90 
  -6  -5  -3    4.30    3.30 
   6   5   3    5.10    2.90 
  -7  -5  -3    8.60    3.70 
   7   5   3    9.90    3.70 
  -8  -5  -3    7.50    4.50 
   8   5   3    3.60    4.30 
  -9  -5  -3    2.10    5.50 
   9   5   3    8.20    5.30 
 -10  -5  -3    4.20    6.90 
  10   5   3    3.60    6.10 
 -14   6   3   34.20    7.30 
  13  -6  -3    6.00    3.10 
 -13   6   3   25.00    6.10 
  12  -6  -3   14.30    3.10 
 -12   6   3   14.90    4.80 
  11  -6  -3   40.60    6.70 
 -11   6   3   26.30    7.50 
  10  -6  -3    3.40    1.90 
 -10   6   3    7.60    3.90 
   9  -6  -3   14.40    3.70 
   9  -6  -3    6.80    2.60 
  -9   6   3    8.00    3.30 
   8  -6  -3   10.60    2.60 
   8  -6  -3   22.30    3.50 
  -8   6   3   17.40    3.50 
   7  -6  -3   38.00    4.70 
   7  -6  -3   39.10    4.20 
  -7   6   3   30.30    4.80 
   6  -6  -3   10.70    1.90 
   6  -6  -3   13.30    2.70 
  -6   6   3   14.30    3.00 
   5  -6  -3    4.00    1.50 
   5  -6  -3    5.10    1.50 
  -5   6   3    9.10    2.20 
   4  -6  -3    0.10    1.20 
  -4   6   3   -0.30    1.70 
   3  -6  -3  162.78   17.00 
  -3   6   3  165.08   17.50 
   2  -6  -3   22.00    3.10 
  -2   6   3   22.90    3.80 
   1  -6  -3   83.49    9.20 
  -1   6   3   90.99   10.00 
   0   6   3   17.90    3.20 
   0   6   3   15.40    3.40 
   1   6   3 1005.00   99.69 
   1   6   3  955.60   99.69 
   2   6   3    4.30    3.40 
   2   6   3   -1.10    2.40 
   3   6   3   18.90    4.20 
   3   6   3   29.90    5.20 
  -4  -6  -3    3.90    1.80 
  -4  -6  -3    4.90    2.90 
   4   6   3    1.00    4.20 
  -5  -6  -3   78.49    9.70 
  -5  -6  -3   78.69    8.70 
   5   6   3   79.79    9.60 
  -6  -6  -3  406.66   44.00 
   6   6   3  433.96   44.40 
  -7  -6  -3    2.80    4.00 
   7   6   3   -2.80    4.10 
  -8  -6  -3   -0.50    4.50 
   8   6   3    0.00    4.70 
  -9  -6  -3    0.40    6.40 
   9   6   3    1.20    5.40 
 -14   7   3   44.20   10.50 
 -12   7   3   27.50    7.10 
 -11   7   3   20.60    7.30 
  10  -7  -3    6.90    2.20 
 -10   7   3   12.10    4.80 
   9  -7  -3    8.40    2.20 
  -9   7   3   13.00    3.50 
   8  -7  -3   18.00    2.90 
   8  -7  -3   15.30    3.70 
  -8   7   3   12.70    3.30 
   7  -7  -3   18.80    3.70 
   7  -7  -3   34.30    4.40 
  -7   7   3   33.90    4.50 
   6  -7  -3    0.70    1.50 
   5  -7  -3   22.20    3.20 
   5  -7  -3   19.80    2.80 
  -5   7   3   18.00    3.40 
   4  -7  -3   -1.10    1.40 
  -4   7   3    1.60    2.30 
   3  -7  -3   10.80    2.20 
  -3   7   3   14.20    3.30 
   2  -7  -3    3.30    1.50 
  -2   7   3    0.90    2.40 
   1  -7  -3    5.50    1.40 
  -1   7   3    6.30    2.70 
   0   7   3    1.40    3.00 
   1   7   3   29.50    4.80 
   1   7   3   29.00    4.70 
   2   7   3   16.10    3.60 
   2   7   3   13.50    3.50 
   3   7   3   -2.20    3.40 
   3   7   3    2.10    2.80 
  -4  -7  -3    3.10    3.20 
  -4  -7  -3   -0.50    2.00 
   4   7   3    0.90    3.10 
  -5  -7  -3   11.50    2.50 
  -5  -7  -3   11.30    3.90 
   5   7   3    7.20    3.60 
  -6  -7  -3   29.00    6.20 
   6   7   3   30.40    6.00 
  -7  -7  -3   -3.50    4.50 
   7   7   3   -0.90    4.50 
  -8  -7  -3    5.40    5.30 
   8   7   3    3.10    5.50 
  -9  -7  -3    4.30    9.90 
   9   7   3    4.90    6.20 
  14  -8  -3    2.90    3.50 
 -13   8   3   31.00    6.90 
  12  -8  -3   18.80    4.60 
 -12   8   3   28.40    6.60 
  11  -8  -3   -0.90    2.20 
 -11   8   3    9.30    5.80 
   9  -8  -3    4.60    2.20 
  -9   8   3    7.00    4.00 
   8  -8  -3   74.19    8.10 
   8  -8  -3   50.19    7.00 
  -8   8   3   63.09    7.80 
   7  -8  -3  215.68   22.40 
   7  -8  -3  210.48   21.70 
  -7   8   3  210.38   22.50 
   6  -8  -3    8.30    2.00 
   6  -8  -3    7.50    1.70 
  -6   8   3   11.40    3.10 
   5  -8  -3   16.00    3.00 
   5  -8  -3   13.70    2.90 
  -5   8   3   15.60    3.70 
   4  -8  -3   36.70    5.00 
  -4   8   3   41.50    5.50 
   3  -8  -3   -0.10    1.60 
  -3   8   3    2.10    2.90 
   2  -8  -3   34.80    4.80 
  -2   8   3   42.50    6.30 
   1  -8  -3   15.30    2.70 
  -1   8   3   14.90    3.70 
   0   8   3   11.40    2.90 
   1   8   3   -2.50    2.70 
   2   8   3   50.59    6.40 
   2   8   3   46.90    7.40 
   3   8   3   11.40    3.20 
   3   8   3    9.80    3.60 
  -4  -8  -3   -1.60    3.60 
  -4  -8  -3   -0.40    2.30 
   4   8   3    2.90    3.20 
  -5  -8  -3   17.90    3.40 
  -5  -8  -3   11.60    4.70 
   5   8   3   13.50    3.90 
  -6  -8  -3   -1.30    4.60 
   6   8   3    4.20    4.30 
  -7  -8  -3   -2.10    5.40 
   7   8   3    3.00    5.00 
  -8  -8  -3   -0.30    7.60 
   8   8   3   -2.50    5.30 
  14  -9  -3    1.30    3.50 
  13  -9  -3    1.10    3.10 
 -13   9   3    9.20    5.30 
  12  -9  -3   13.70    3.40 
 -12   9   3   27.40    7.20 
  11  -9  -3   19.40    4.50 
 -11   9   3   26.20    7.10 
  10  -9  -3    5.90    2.40 
 -10   9   3    5.60    6.40 
   9  -9  -3   19.20    3.90 
   9  -9  -3   12.00    3.00 
  -9   9   3   24.40    6.20 
   8  -9  -3   13.10    3.20 
  -8   9   3   18.40    5.30 
   7  -9  -3    9.20    2.60 
   7  -9  -3    8.10    2.50 
  -7   9   3   10.40    3.80 
   6  -9  -3    7.10    1.80 
   6  -9  -3    6.80    2.10 
  -6   9   3    6.90    3.30 
   5  -9  -3    0.80    1.80 
   5  -9  -3   -0.90    2.00 
  -5   9   3   -0.80    3.30 
   4  -9  -3    2.50    1.90 
  -4   9   3    4.80    3.90 
   3  -9  -3   -1.10    1.80 
  -3   9   3    0.30    2.70 
   2  -9  -3    1.10    1.70 
  -2   9   3    0.90    2.60 
   1  -9  -3   -0.50    1.50 
  -1   9   3   -0.20    2.80 
   0   9   3    0.80    2.90 
   1   9   3    4.70    3.10 
   2   9   3   12.20    3.60 
  -3  -9  -3    6.30    4.20 
  -3  -9  -3    9.70    2.50 
  -4  -9  -3    7.00    2.90 
  -4  -9  -3   11.80    4.40 
  -5  -9  -3    0.70    3.00 
  -5  -9  -3   -0.50    4.80 
  -6  -9  -3    2.20    5.20 
  -7  -9  -3   -0.30    7.40 
  14 -10  -3    6.40    3.80 
  13 -10  -3    9.50    3.50 
 -13  10   3   14.70    5.60 
  12 -10  -3    5.30    2.90 
 -12  10   3    7.50    5.50 
  11 -10  -3   -0.60    2.70 
 -11  10   3    7.30    5.10 
  10 -10  -3    4.00    2.60 
 -10  10   3    3.50    4.80 
   9 -10  -3    2.10    2.30 
  -9  10   3   11.30    5.40 
   8 -10  -3    2.10    2.20 
  -8  10   3   -0.40    5.80 
   7 -10  -3    3.10    2.90 
   7 -10  -3   -0.80    1.90 
  -7  10   3   -1.10    4.20 
   6 -10  -3   15.30    3.00 
   6 -10  -3   18.80    3.80 
  -6  10   3   16.00    5.30 
   5 -10  -3   53.49    6.90 
  -5  10   3   57.79    7.90 
   4 -10  -3   69.99    7.80 
  -4  10   3   60.49    8.40 
   3 -10  -3    8.80    2.50 
  -3  10   3   12.20    3.20 
   2 -10  -3    1.70    1.90 
  -2  10   3    1.90    3.20 
   1 -10  -3   70.49    7.60 
  -1  10   3   64.29    8.50 
   0  10   3   98.49   11.50 
   1  10   3   13.00    3.80 
   2  10   3    0.00    3.70 
  -3 -10  -3    0.20    2.80 
  -3 -10  -3   -1.50    4.40 
  -4 -10  -3   27.00    6.70 
  -4 -10  -3   17.40    3.90 
  -5 -10  -3    4.40    3.70 
  -5 -10  -3    0.70    6.00 
  -6 -10  -3   -6.30    6.50 
  14 -11  -3    1.20    3.90 
  13 -11  -3    6.70    3.70 
  12 -11  -3   14.50    3.80 
 -12  11   3   28.10    7.00 
  11 -11  -3    7.20    3.00 
 -11  11   3   11.00    5.80 
  10 -11  -3   14.60    3.40 
 -10  11   3   19.90    6.50 
   9 -11  -3    5.80    2.70 
  -9  11   3    5.80    4.40 
   8 -11  -3   -0.90    2.40 
   8 -11  -3   -1.80    2.40 
  -8  11   3    3.10    3.90 
   7 -11  -3    9.30    2.60 
   7 -11  -3   10.80    3.30 
  -7  11   3    8.60    4.10 
   6 -11  -3    8.10    2.80 
   6 -11  -3    9.90    3.30 
  -6  11   3   11.80    4.10 
   5 -11  -3   -1.20    2.40 
  -5  11   3   -1.00    3.50 
   4 -11  -3    1.20    2.40 
  -4  11   3   -1.70    3.30 
   3 -11  -3    7.00    2.30 
  -3  11   3    4.60    3.50 
   2 -11  -3    2.10    2.30 
  -2  11   3    3.70    3.50 
   1 -11  -3   -0.30    2.00 
  -1  11   3    2.10    3.60 
   0  11   3    8.60    3.80 
   1  11   3    0.70    4.00 
  -2 -11  -3   12.90    3.30 
  -2 -11  -3    3.90    4.90 
  -3 -11  -3    1.80    5.20 
  -3 -11  -3    6.30    3.40 
  -4 -11  -3   10.10    6.00 
  -4 -11  -3    4.10    3.70 
  -5 -11  -3    4.00    7.30 
  13 -12  -3    6.30    3.90 
  12 -12  -3    6.90    3.50 
 -12  12   3   10.70    6.80 
  11 -12  -3    1.10    3.40 
 -11  12   3   -1.80    5.20 
  10 -12  -3   -1.90    3.00 
 -10  12   3   -1.50    5.50 
   9 -12  -3   37.70    5.80 
  -9  12   3   29.00    7.90 
   8 -12  -3    4.40    2.70 
  -8  12   3    0.80    5.10 
   7 -12  -3    2.30    2.70 
   7 -12  -3    0.20    2.70 
  -7  12   3    2.40    4.20 
   6 -12  -3   32.90    7.90 
   6 -12  -3   39.20    5.80 
  -6  12   3   32.10    6.30 
   5 -12  -3    5.80    3.20 
  -5  12   3    7.10    4.00 
   4 -12  -3    1.70    2.60 
  -4  12   3   -4.40    3.80 
   3 -12  -3    1.20    2.60 
  -3  12   3    1.60    4.00 
   2 -12  -3    5.10    2.60 
  -2  12   3    1.90    4.10 
  -1  12   3    1.20    4.00 
   0  12   3    1.60    4.40 
   1  12   3   20.50    5.50 
  -2 -12  -3    8.10    5.80 
  -2 -12  -3    1.50    3.50 
  -3 -12  -3    1.30    4.20 
  -3 -12  -3    4.30    6.80 
  -4 -12  -3   -2.50    7.00 
  -4 -12  -3   -0.70    4.20 
  13 -13  -3    2.60    4.10 
  12 -13  -3   10.50    3.90 
 -12  13   3    9.50    6.60 
  11 -13  -3   -4.20    3.70 
 -11  13   3    5.50    7.00 
  10 -13  -3   -0.90    3.30 
 -10  13   3    7.00    6.90 
   9 -13  -3   -2.40    3.10 
  -9  13   3    2.40    6.00 
   8 -13  -3    1.40    2.90 
  -8  13   3    6.60    5.30 
   7 -13  -3   -1.50    2.80 
   7 -13  -3   -1.90    3.20 
  -7  13   3   -2.40    4.70 
   6 -13  -3   -0.10    3.30 
   6 -13  -3   -0.20    3.40 
  -6  13   3    8.60    4.70 
   5 -13  -3    3.50    4.30 
  -5  13   3    3.50    4.50 
   4 -13  -3   -1.80    2.90 
  -4  13   3    3.70    4.70 
   3 -13  -3   -1.70    2.80 
  -3  13   3   -3.70    4.40 
   2 -13  -3   -1.00    2.90 
  -2  13   3   -1.50    4.70 
  -1  13   3   -0.70    4.70 
   0  13   3   -1.50    5.10 
  -1 -13  -3   -1.20    6.10 
  -1 -13  -3    6.10    3.80 
  -2 -13  -3   -7.50    4.50 
  -2 -13  -3    1.10    7.60 
  -3 -13  -3    2.90    7.60 
  -3 -13  -3   11.90    4.80 
  12 -14  -3    2.60    4.00 
  11 -14  -3   -2.20    4.10 
 -11  14   3    6.10    7.80 
  10 -14  -3    6.70    3.70 
 -10  14   3    5.10    7.70 
   9 -14  -3    1.00    3.50 
  -9  14   3    9.60    6.90 
   8 -14  -3    4.60    3.30 
  -8  14   3    3.20    6.40 
   7 -14  -3   17.40    3.90 
  -7  14   3   20.10    7.10 
   6 -14  -3   -1.30    3.20 
   6 -14  -3   -3.20    4.00 
  -6  14   3    1.70    5.40 
   5 -14  -3    1.90    4.40 
  -5  14   3   -2.40    5.50 
   4 -14  -3   -2.90    3.70 
  -4  14   3   -1.90    5.30 
   3 -14  -3   -3.50    3.40 
  -3  14   3    5.50    5.40 
  -2  14   3   20.40    6.00 
  -1  14   3    5.50    5.60 
   0  14   3   -0.90    6.90 
  -1 -14  -3    3.80    4.80 
  -1 -14  -3    0.90    7.40 
  -2 -14  -3   10.00    8.50 
  -2 -14  -3    9.70    5.30 
  11 -15  -3    4.60    4.50 
 -11  15   3    4.30    7.60 
  10 -15  -3    3.20    4.20 
 -10  15   3    7.80    8.70 
   9 -15  -3    2.40    4.00 
  -9  15   3    6.60    8.30 
   8 -15  -3   -0.30    3.80 
  -8  15   3    0.50    7.80 
   7 -15  -3   -4.00    3.60 
  -7  15   3    3.20    7.40 
   6 -15  -3   -2.70    8.00 
   6 -15  -3    5.00    3.70 
  -6  15   3    9.60    7.10 
   5 -15  -3    1.20    3.80 
  -5  15   3    3.20    6.40 
   4 -15  -3    0.40    5.50 
  -4  15   3   -3.60    6.20 
  -3  15   3    9.20    6.00 
  -2  15   3    3.90    6.90 
  -1  15   3    1.50    7.30 
   0 -15  -3    4.20    8.00 
   0 -15  -3    3.00    4.90 
 -10  16   3    8.20    9.40 
   9 -16  -3    6.80    4.50 
  -9  16   3   14.00   10.60 
   8 -16  -3    0.70    4.40 
  -8  16   3    0.30    9.30 
   7 -16  -3   -1.40    4.30 
  -7  16   3    1.30    9.00 
   6 -16  -3   -0.60    4.30 
  -6  16   3    1.60    8.00 
   5 -16  -3   -0.60    4.70 
  -5  16   3    6.40    7.70 
  -4  16   3    2.50    8.70 
  -3  16   3   -1.50    7.70 
  -2  16   3    1.60    7.70 
   3 -17   4    0.90    6.90 
   4 -17   4    2.30    6.00 
   4 -17   4   -1.10    4.70 
   4 -17   4    1.30    6.70 
   5 -17   4    6.70    7.00 
   5 -17   4   -2.70    4.70 
   5 -17   4    5.10    5.70 
   6 -17   4   -4.10    5.30 
   6 -17   4    3.20    4.70 
   0 -16   4   20.80    7.90 
   1 -16   4    3.90    7.10 
   2 -16   4    1.70    5.80 
   3 -16   4   14.20    6.20 
   3 -16   4    6.30    5.90 
   4 -16   4   43.00    8.20 
   4 -16   4   28.80    8.30 
   5 -16   4   27.60    6.70 
   5 -16   4   19.00    4.40 
   5 -16   4   18.40    5.50 
   5 -16   4   28.30    6.70 
   6 -16   4    3.50    4.20 
   6 -16   4   -0.80    4.60 
   6 -16   4    0.00    3.60 
   6 -16   4    5.50    5.80 
   7 -16   4    7.60    4.30 
   7 -16   4   -1.80    4.50 
   8 -16   4   -2.20    4.80 
   8 -16   4    4.00    4.20 
   9 -16   4    9.80    4.40 
   9 -16   4   -4.70    4.90 
  -2 -15   4    0.70    6.50 
  -1 -15   4   -4.60    6.40 
   0 -15   4    0.30    5.50 
   1 -15   4   -0.90    5.20 
   2 -15   4    8.00    5.10 
   3 -15   4   -1.20    4.60 
   3 -15   4   -3.70    5.00 
   4 -15   4    5.50    4.60 
   4 -15   4   11.20    5.00 
   4 -15   4    8.00    3.20 
   5 -15   4   -3.00    3.10 
   5 -15   4    2.10    4.30 
   5 -15   4    0.80    4.90 
   6 -15   4    5.60    5.10 
   6 -15   4   -0.60    4.00 
   6 -15   4    1.10    3.20 
   6 -15   4    0.20    3.60 
   7 -15   4   -2.20    4.10 
   7 -15   4    0.10    3.60 
   8 -15   4   -1.50    3.80 
   8 -15   4   -3.60    4.30 
   9 -15   4    0.20    4.50 
   9 -15   4    8.50    3.90 
  10 -15   4    1.00    4.10 
  -3 -14   4    3.60    6.10 
  -2 -14   4    6.40    6.20 
  -1 -14   4   -2.70    4.90 
   0 -14   4   14.90    5.20 
   1 -14   4   21.80    5.30 
   2 -14   4   20.60    5.30 
   3 -14   4    0.10    4.00 
   3 -14   4    7.80    2.70 
   3 -14   4    0.40    4.40 
   4 -14   4    1.50    4.30 
   4 -14   4    3.40    2.70 
   4 -14   4    1.40    4.00 
   5 -14   4    1.40    4.40 
   5 -14   4    2.50    2.80 
   5 -14   4    1.70    3.80 
   6 -14   4    2.10    4.70 
   6 -14   4    3.50    3.70 
   6 -14   4   -0.50    2.80 
   6 -14   4   -2.10    3.10 
   7 -14   4   20.80    5.10 
   7 -14   4   16.10    4.40 
   7 -14   4   19.20    4.20 
   7 -14   4   29.80    8.70 
   8 -14   4    0.30    3.30 
   8 -14   4    5.40    3.90 
   9 -14   4    5.50    3.50 
   9 -14   4    3.00    4.10 
  10 -14   4   -1.10    3.80 
  11 -14   4   12.20    4.70 
  11 -14   4    5.40    5.50 
  -5 -13   4   -0.70    6.20 
  -4 -13   4   -0.70    6.30 
  -3 -13   4    4.70    5.50 
  -2 -13   4   -0.10    4.70 
  -1 -13   4    0.90    4.40 
   0 -13   4   11.20    4.30 
   1 -13   4    1.00    3.90 
   2 -13   4   10.10    4.10 
   2 -13   4    7.10    2.60 
   3 -13   4    1.80    3.90 
   3 -13   4    0.50    3.70 
   3 -13   4   -0.60    2.40 
   4 -13   4   10.00    4.30 
   4 -13   4   19.30    4.50 
   4 -13   4   15.90    3.00 
   5 -13   4    3.20    4.90 
   5 -13   4    3.90    3.60 
   5 -13   4    3.40    3.10 
   6 -13   4   -1.40    3.50 
   6 -13   4   -4.40    3.40 
   6 -13   4   -2.20    5.40 
   7 -13   4   -2.20    3.90 
   7 -13   4   -1.00    2.90 
   7 -13   4    1.50    2.50 
   8 -13   4    1.20    3.70 
   8 -13   4    0.40    3.10 
   9 -13   4   -3.00    3.80 
   9 -13   4    0.10    3.30 
  10 -13   4    4.30    3.60 
  10 -13   4   -2.40    4.00 
  11 -13   4   -1.50    3.70 
  12 -13   4    1.90    4.30 
  -6 -12   4   15.80    6.80 
  -5 -12   4   10.70    6.60 
  -4 -12   4    0.00    4.80 
  -3 -12   4    6.60    4.40 
  -2 -12   4   14.90    4.80 
  -1 -12   4    9.40    3.90 
   0 -12   4    4.10    3.60 
   1 -12   4   24.60    5.30 
   2 -12   4   -0.80    3.40 
   2 -12   4    1.30    2.10 
   3 -12   4   10.50    4.30 
   3 -12   4   11.90    3.00 
   3 -12   4   14.10    4.70 
   4 -12   4    8.00    6.70 
   4 -12   4    5.50    5.00 
   4 -12   4    4.70    4.20 
   5 -12   4    6.50    2.40 
   5 -12   4    9.20    3.70 
   5 -12   4    7.50    4.50 
   6 -12   4   20.60    3.60 
   6 -12   4   24.70    6.90 
   6 -12   4   21.80    4.70 
   7 -12   4    4.70    2.10 
   7 -12   4    4.50    2.70 
   7 -12   4   -3.00    4.90 
   7 -12   4    2.30    3.40 
   8 -12   4   -1.20    2.80 
   8 -12   4   -2.30    5.10 
   9 -12   4    0.10    4.10 
   9 -12   4    3.40    2.90 
  10 -12   4    3.00    3.40 
  10 -12   4   -4.90    4.30 
  11 -12   4    0.90    3.50 
  12 -12   4    5.60    4.20 
  -7 -11   4    1.30    5.70 
  -6 -11   4   -2.30    6.30 
  -5 -11   4    1.00    4.60 
  -4 -11   4    5.70    4.20 
  -3 -11   4    0.70    3.70 
  -2 -11   4   10.00    3.90 
  -1 -11   4   22.50    4.90 
   0 -11   4    3.00    3.10 
   1 -11   4    2.20    3.30 
   1 -11   4    2.50    2.00 
   2 -11   4    0.00    3.50 
   2 -11   4    2.10    2.20 
   3 -11   4    6.10    4.90 
   3 -11   4   10.60    3.90 
   3 -11   4   10.70    3.10 
   4 -11   4    2.30    2.90 
   4 -11   4   -2.30    3.30 
   4 -11   4    0.50    2.10 
   5 -11   4   -1.10    2.80 
   5 -11   4    2.50    2.70 
   5 -11   4   -0.20    1.80 
   6 -11   4   24.20    4.40 
   6 -11   4   23.60    5.30 
   6 -11   4   21.90    3.40 
   7 -11   4    0.20    3.00 
   7 -11   4    4.50    1.90 
   7 -11   4    1.10    2.30 
   7 -11   4    2.20    3.40 
   8 -11   4    0.50    2.50 
   8 -11   4   -1.20    4.40 
   9 -11   4   -0.50    5.60 
   9 -11   4   -0.60    2.60 
  10 -11   4   -2.70    3.00 
  11 -11   4    6.70    3.40 
  12 -11   4    5.00    4.00 
  13 -11   4    0.00    5.80 
  13 -11   4   -1.80    4.00 
  -8 -10   4    6.30    5.80 
  -7 -10   4    6.40    6.00 
  -6 -10   4    8.50    4.80 
  -5 -10   4    4.50    4.00 
  -4 -10   4   37.20    6.10 
  -3 -10   4   -2.30    3.10 
  -2 -10   4    7.80    3.20 
  -1 -10   4   10.60    3.30 
   0 -10   4   27.70    4.90 
   1 -10   4    5.50    2.40 
   1 -10   4    3.20    3.80 
   2 -10   4   25.30    4.00 
   2 -10   4   26.50    5.30 
   3 -10   4   10.60    2.30 
   3 -10   4   10.20    3.10 
   3 -10   4   11.70    3.40 
   4 -10   4   71.79    8.10 
   4 -10   4   72.59    9.10 
   4 -10   4   79.39    8.80 
   5 -10   4   59.59    6.60 
   5 -10   4   62.19    7.60 
   5 -10   4   59.29    7.20 
   6 -10   4   12.80    3.00 
   6 -10   4    9.70    3.10 
   6 -10   4   10.70    2.10 
   7 -10   4    1.00    2.40 
   7 -10   4    1.60    2.50 
   7 -10   4    3.20    2.20 
   8 -10   4    0.80    2.40 
   8 -10   4    1.40    3.20 
   9 -10   4   -1.60    4.90 
   9 -10   4   -0.50    2.50 
  10 -10   4   -1.50    5.20 
  10 -10   4    6.10    2.90 
  11 -10   4   60.49    7.60 
  11 -10   4   36.80    8.10 
  12 -10   4    6.50    3.60 
  13 -10   4   30.10    8.30 
  -8  -9   4    4.10    5.90 
  -7  -9   4   -0.60    4.10 
  -6  -9   4    6.20    3.80 
  -5  -9   4    8.10    3.60 
  -4  -9   4    6.10    3.10 
  -3  -9   4   49.10    6.50 
  -1  -9   4   15.40    3.70 
   0  -9   4    6.90    3.40 
   1  -9   4    1.30    1.60 
   1  -9   4   -0.20    2.50 
   2  -9   4    0.50    1.50 
   2  -9   4   -0.30    2.40 
   3  -9   4    3.40    2.20 
   3  -9   4    5.40    2.50 
   3  -9   4    3.30    1.60 
   4  -9   4    0.10    2.00 
   4  -9   4    0.70    2.30 
   4  -9   4    1.70    1.50 
   5  -9   4   -2.80    2.10 
   5  -9   4    0.70    2.10 
   5  -9   4    0.90    1.40 
   6  -9   4   16.20    3.80 
   6  -9   4   15.70    3.30 
   6  -9   4   15.70    3.10 
   7  -9   4    4.60    2.70 
   7  -9   4    4.90    2.20 
   8  -9   4   -2.30    2.70 
   8  -9   4    1.60    2.30 
   9  -9   4   -3.80    4.40 
   9  -9   4    4.90    2.50 
  10  -9   4   -3.90    5.60 
  10  -9   4    2.70    2.70 
  11  -9   4    5.00    5.00 
  11  -9   4   11.20    3.40 
  12  -9   4    0.90    3.50 
  12  -9   4   -3.70    4.50 
  -9  -8   4    7.00    5.70 
  -8  -8   4   17.10    4.80 
  -7  -8   4    8.30    4.00 
  -6  -8   4    2.00    3.10 
  -5  -8   4    7.90    3.10 
  -4  -8   4   12.70    3.10 
  -3  -8   4    4.00    2.50 
  -2  -8   4  235.28   24.90 
  -1  -8   4   51.09    7.10 
   0  -8   4    2.30    2.20 
   1  -8   4    7.60    1.60 
   1  -8   4    5.20    2.40 
   2  -8   4   10.70    2.20 
   2  -8   4   12.80    3.10 
   2  -8   4   16.10    3.40 
   3  -8   4   16.00    3.20 
   3  -8   4   15.10    2.40 
   3  -8   4   17.70    3.50 
   4  -8   4   11.50    2.80 
   4  -8   4   12.90    2.10 
   4  -8   4   10.50    3.10 
   5  -8   4    8.40    1.60 
   5  -8   4    3.50    1.90 
   5  -8   4    3.70    2.20 
   6  -8   4   15.00    3.70 
   7  -8   4    2.60    2.90 
   7  -8   4    4.20    2.30 
   8  -8   4    3.60    2.10 
   8  -8   4    2.10    3.10 
   9  -8   4    2.00    2.30 
   9  -8   4   -5.90    4.50 
  10  -8   4   33.70    8.20 
  10  -8   4   42.30    6.00 
  11  -8   4   -0.20    3.10 
  12  -8   4    5.50    4.20 
  12  -8   4    1.70    3.50 
 -10  -7   4    0.00    5.50 
  -9  -7   4   -4.90    4.10 
  -8  -7   4   -1.30    3.60 
  -7  -7   4   32.40    5.30 
  -6  -7   4   23.50    4.20 
  -5  -7   4   12.30    3.00 
  -4  -7   4   14.60    3.40 
  -3  -7   4   36.30    4.90 
  -2  -7   4   14.80    4.00 
  -1  -7   4    0.80    2.10 
   0  -7   4   48.50    5.90 
   1  -7   4   12.20    2.50 
   2  -7   4    0.40    1.10 
   2  -7   4    0.20    1.80 
   2  -7   4    1.70    1.80 
   3  -7   4   15.70    2.20 
   3  -7   4   16.30    2.80 
   3  -7   4   16.00    3.10 
   3  -7   4   10.50    2.90 
   4  -7   4   -0.30    1.60 
   4  -7   4    0.30    1.70 
   4  -7   4    2.00    1.00 
   5  -7   4   -0.20    1.80 
   6  -7   4    1.40    1.90 
   7  -7   4    2.40    2.50 
   7  -7   4    6.00    2.60 
   8  -7   4    3.30    2.80 
   8  -7   4    4.90    3.50 
   9  -7   4   -2.20    4.60 
   9  -7   4   -0.90    2.40 
  10  -7   4    9.80    6.00 
  10  -7   4   11.30    3.00 
  11  -7   4   12.40    4.20 
  11  -7   4    3.60    3.20 
 -11  -6   4   -1.50    6.00 
 -10  -6   4   -0.30    4.60 
  -9  -6   4   12.50    4.10 
  -8  -6   4    7.70    3.40 
  -7  -6   4    7.60    3.00 
  -6  -6   4   -2.40    2.40 
  -5  -6   4   13.60    3.10 
  -4  -6   4    9.10    2.30 
  -2  -6   4   -0.40    1.90 
  -1  -6   4  118.59   12.90 
   0  -6   4   17.60    2.90 
   1  -6   4  245.88   25.40 
   2  -6   4   31.90    4.30 
   2  -6   4   29.10    4.10 
   2  -6   4   29.60    3.90 
   3  -6   4   62.09    7.40 
   3  -6   4   68.39    7.00 
   3  -6   4   61.79    6.90 
   4  -6   4   37.70    5.00 
   5  -6   4  114.89   12.60 
   6  -6   4  135.59   14.70 
   7  -6   4    2.50    2.00 
   7  -6   4    0.80    2.70 
   8  -6   4    2.40    2.40 
   8  -6   4    4.70    3.80 
   9  -6   4  236.88   24.90 
   9  -6   4  224.78   25.20 
  10  -6   4  158.38   18.80 
  10  -6   4  168.58   18.00 
  11  -6   4   15.30    3.60 
 -11  -5   4   -5.10    5.90 
 -10  -5   4    2.00    4.10 
  -9  -5   4   -1.30    3.30 
  -8  -5   4   34.90    5.30 
  -7  -5   4   33.90    4.80 
  -6  -5   4   38.20    5.00 
  -5  -5   4   15.30    3.00 
  -4  -5   4    0.70    2.50 
  -3  -5   4   11.90    2.70 
  -2  -5   4   32.60    4.30 
  -1  -5   4    7.20    1.90 
   0  -5   4    8.40    2.00 
   1  -5   4   45.90    5.20 
   1  -5   4   44.90    5.30 
   1  -5   4   45.50    5.60 
   2  -5   4    4.00    1.50 
   2  -5   4    3.30    1.50 
   2  -5   4    4.40    1.40 
   3  -5   4    9.90    1.60 
   3  -5   4    7.60    1.50 
   3  -5   4    9.50    2.10 
   4  -5   4    1.30    1.50 
   5  -5   4    2.90    1.70 
   6  -5   4    5.00    2.50 
   6  -5   4    6.40    2.00 
   7  -5   4    2.00    1.90 
   7  -5   4    6.00    3.50 
   8  -5   4    1.70    3.90 
   8  -5   4   -0.10    2.10 
   9  -5   4    1.90    5.10 
   9  -5   4    5.90    3.70 
  10  -5   4   23.50    5.50 
  10  -5   4   33.20    6.70 
 -12  -4   4   -7.50    7.50 
 -11  -4   4    6.70    4.80 
  -9  -4   4    1.30    3.00 
  -8  -4   4   13.10    3.60 
  -7  -4   4    2.20    2.20 
  -6  -4   4    1.70    1.90 
  -5  -4   4    4.40    2.70 
  -4  -4   4  244.98   25.50 
  -3  -4   4   27.70    3.70 
  -2  -4   4   64.09    7.30 
  -1  -4   4  243.78   25.10 
   0   4  -4   84.39    9.30 
   0   4  -4   82.99    8.90 
   0  -4   4   89.69    9.20 
  -1   4  -4   57.09    6.10 
  -1   4  -4   59.99    6.30 
   1  -4   4   58.19    6.30 
   1  -4   4   57.59    6.80 
   2  -4   4   18.60    2.20 
   2  -4   4   17.40    2.30 
   2  -4   4   18.20    3.00 
   3  -4   4   95.59   10.40 
   4  -4   4   39.70    5.00 
   5  -4   4   18.30    3.60 
   6  -4   4    5.90    2.90 
   6  -4   4   -0.80    1.60 
   7  -4   4    8.50    4.00 
   7  -4   4    3.70    1.90 
  -8   4  -4    1.30    2.80 
   8  -4   4    7.50    4.20 
   8  -4   4    3.30    2.10 
  -9   4  -4   99.29   12.90 
   9  -4   4  135.19   13.90 
   9  -4   4  135.09   15.40 
  10  -4   4   24.60    6.30 
 -12  -3   4    8.10    6.40 
 -11  -3   4    4.10    4.30 
 -10  -3   4    3.20    3.40 
  -9  -3   4   68.19    8.30 
  -8  -3   4   36.70    5.10 
  -7  -3   4   14.10    2.80 
  -6  -3   4   10.40    2.60 
  -5  -3   4    9.50    2.60 
  -4  -3   4    9.40    2.20 
  -3  -3   4    0.90    1.30 
  -2  -3   4  101.29   10.80 
  -1  -3   4   32.00    3.80 
   0   3  -4   42.40    4.80 
   0  -3   4   43.10    4.80 
   0  -3   4   43.60    5.30 
  -1   3  -4    6.20    1.40 
   1  -3   4    5.40    1.80 
   1  -3   4    7.60    1.30 
   2  -3   4   43.90    5.30 
   3  -3   4   31.50    4.20 
   4  -3   4   11.30    2.80 
   5  -3   4    6.70    2.80 
  -6   3  -4    7.20    2.10 
   6  -3   4    5.00    1.90 
   6  -3   4    9.30    3.60 
  -7   3  -4    2.30    2.00 
  -7   3  -4    8.20    3.00 
   7  -3   4    3.00    3.30 
   7  -3   4    3.90    2.00 
  -8   3  -4   14.10    3.40 
   8  -3   4   20.90    6.00 
  -9   3  -4   -2.50    2.90 
   9  -3   4    2.40    2.40 
   9  -3   4    7.40    4.40 
 -10   3  -4   20.30    4.40 
  10  -3   4   35.40    8.00 
 -13  -2   4   -6.70    8.50 
 -12  -2   4   -2.20    5.40 
 -11  -2   4   -1.10    3.90 
 -10  -2   4    4.00    3.30 
  -9  -2   4    7.50    2.90 
  -8  -2   4    0.10    2.20 
  -7  -2   4    1.00    2.00 
  -6  -2   4   22.90    3.80 
  -5  -2   4    0.00    1.60 
  -4  -2   4   12.50    2.20 
  -3  -2   4  203.98   21.10 
  -2  -2   4   15.90    2.40 
   1   2  -4  304.77   30.20 
  -1  -2   4  289.87   30.20 
   0   2  -4   52.49    6.00 
   0  -2   4   63.09    6.20 
   0  -2   4   56.09    6.50 
  -1   2  -4    4.00    1.00 
   1  -2   4    1.20    1.30 
   1  -2   4    2.90    1.40 
   2  -2   4    4.90    1.50 
   3  -2   4 1128.49  113.89 
  -4   2  -4  173.68   17.30 
  -4   2  -4  165.08   17.20 
   4  -2   4  168.08   17.90 
  -5   2  -4  131.79   13.40 
  -5   2  -4  134.09   13.30 
   5  -2   4  122.19   13.60 
   5  -2   4  125.89   14.30 
  -6   2  -4    2.60    2.70 
  -6   2  -4    1.30    1.70 
   6  -2   4    2.30    1.60 
   6  -2   4    0.90    3.00 
  -7   2  -4    2.60    2.00 
   7  -2   4    2.00    3.10 
   7  -2   4    3.00    1.90 
  -8   2  -4  764.82   77.39 
   8  -2   4  796.12   78.59 
   8  -2   4  734.73   77.69 
  -9   2  -4    1.00    3.10 
   9  -2   4    7.90    4.40 
   9  -2   4    0.30    2.40 
  10  -2   4   12.00    4.20 
  10  -2   4   41.00    7.00 
 -11   2  -4   20.40    6.30 
  11  -2   4   17.60    4.90 
  12  -2   4   40.20   10.10 
 -12  -1   4   -5.50    5.20 
 -11  -1   4   -1.70    3.80 
 -10  -1   4    8.80    3.50 
  -9  -1   4   86.09    9.90 
   8   1  -4   29.60    4.00 
  -8  -1   4   30.30    4.60 
   7   1  -4    6.00    1.60 
  -7  -1   4    6.80    3.00 
   6   1  -4    0.20    1.10 
  -6  -1   4    0.40    1.70 
  -5  -1   4    8.80    2.30 
  -4  -1   4    2.30    1.40 
  -3  -1   4   24.30    3.20 
   2   1  -4   17.30    2.50 
  -2  -1   4   22.90    2.90 
   1   1  -4    6.00    1.30 
  -1  -1   4    2.00    1.40 
  -1  -1   4   11.80    2.20 
   0   1  -4   51.69    5.30 
   0  -1   4   45.50    5.50 
   0  -1   4   48.00    5.50 
  -1   1  -4  102.39   10.60 
   1  -1   4  106.29   11.00 
   1  -1   4  101.29   10.70 
  -2   1  -4   35.70    4.30 
   2  -1   4   40.30    4.40 
   2  -1   4   41.10    4.90 
  -3   1  -4    5.20    1.50 
   3  -1   4    7.70    2.50 
   3  -1   4    5.90    1.50 
  -4   1  -4    8.90    2.00 
  -4   1  -4   10.60    2.00 
  -4   1  -4    6.60    1.50 
   4  -1   4   10.40    3.00 
  -5   1  -4   26.70    4.40 
  -5   1  -4   28.20    3.70 
   5  -1   4   29.20    3.90 
   5  -1   4   31.00    5.40 
  -6   1  -4    5.70    2.10 
   6  -1   4    5.50    3.20 
   6  -1   4    4.70    1.70 
  -7   1  -4    7.00    2.70 
   7  -1   4    5.60    2.00 
   7  -1   4    0.00    3.40 
  -8   1  -4   28.70    4.50 
   8  -1   4   22.50    6.70 
   8  -1   4   27.90    4.70 
  -9   1  -4    4.00    3.60 
   9  -1   4   22.80    6.10 
 -10   1  -4    5.60    5.60 
  10  -1   4   30.90    7.00 
  10  -1   4    6.90    3.50 
  11  -1   4   31.00    8.20 
  11  -1   4    2.20    4.60 
  12  -1   4   49.00   11.00 
  12   0  -4   24.50    5.10 
 -12   0   4   13.10    6.60 
  11   0  -4   13.50    3.20 
 -11   0   4   11.50    4.50 
  10   0  -4   15.00    4.80 
  10   0  -4   15.40    3.90 
 -10   0   4   18.70    4.20 
   9   0  -4   11.50    3.70 
   9   0  -4   14.20    3.00 
  -9   0   4   16.10    3.70 
   8   0  -4   -0.10    2.90 
   8   0  -4    2.90    1.40 
  -8   0   4    1.30    3.70 
   7   0  -4   22.00    3.00 
  -7   0   4   21.40    3.60 
   6   0  -4   15.10    2.40 
  -6   0   4   16.90    3.00 
   5   0  -4  569.64   56.59 
  -5   0   4  549.35   56.69 
   4   0  -4  116.99   12.20 
  -4   0   4  119.19   12.50 
  -3   0   4   20.00    3.10 
   2   0  -4  212.78   21.50 
  -2   0   4  207.38   21.60 
   1   0  -4   52.99    5.20 
  -1   0   4   41.50    5.10 
  -1   0   4   43.90    5.40 
   0   0  -4  440.96   45.40 
   0   0   4  454.05   45.40 
   0   0   4  451.95   45.50 
   1   0   4  482.35   49.40 
   1   0   4  492.05   49.30 
  -2   0  -4   54.89    6.70 
   2   0   4   69.39    7.50 
   2   0   4   64.29    6.90 
  -3   0  -4   41.60    4.90 
   3   0   4   38.40    4.90 
   3   0   4   47.30    6.00 
  -4   0  -4   30.20    3.40 
  -4   0  -4   30.40    3.90 
   4   0   4   29.90    3.90 
   4   0   4   30.30    4.90 
  -5   0  -4   91.69   10.30 
   5   0   4   93.99   11.00 
   5   0   4   98.29   10.20 
  -6   0  -4  101.49   10.50 
   6   0   4  100.89   10.40 
   6   0   4   82.79   11.50 
  -7   0  -4   19.70    3.80 
   7   0   4   12.00    5.10 
   7   0   4   22.00    4.00 
  -8   0  -4   -0.80    2.90 
   8   0   4    6.20    4.00 
   8   0   4    2.10    2.20 
  -9   0  -4    6.30    5.10 
   9   0   4   16.10    4.70 
   9   0   4    2.00    2.60 
 -10   0  -4    5.10    4.70 
  10   0   4   12.90    5.40 
  10   0   4    3.50    3.00 
 -11   0  -4    7.70    4.80 
  12   0   4   39.50   10.50 
  14  -1  -4   -5.30    4.40 
 -14   1   4  -10.20    7.80 
  13  -1  -4    4.30    3.50 
 -13   1   4   -5.50    6.30 
  12  -1  -4    6.00    2.70 
 -12   1   4   -0.40    5.00 
  11  -1  -4    1.00    5.60 
  11  -1  -4    3.50    2.20 
 -11   1   4   -2.00    3.90 
  10  -1  -4   17.00    4.30 
  10  -1  -4   19.80    5.40 
 -10   1   4   23.60    4.70 
   9  -1  -4    9.10    2.20 
   9  -1  -4   12.40    3.60 
  -9   1   4   14.40    4.20 
   8  -1  -4    9.60    2.40 
   8  -1  -4    9.60    3.00 
  -8   1   4   14.00    3.80 
   7  -1  -4   23.60    3.30 
   7  -1  -4   22.20    4.10 
  -7   1   4   27.40    4.00 
   6  -1  -4    0.30    1.10 
  -6   1   4    4.10    2.10 
   5  -1  -4   15.80    2.30 
  -5   1   4   15.40    3.00 
   4  -1  -4    6.60    1.60 
  -4   1   4    8.90    2.40 
   3  -1  -4   16.20    2.20 
  -3   1   4   17.50    3.10 
   2  -1  -4   21.30    2.60 
   2  -1  -4   23.00    3.00 
  -2   1   4   16.40    3.30 
  -2   1   4   22.70    2.60 
   1  -1  -4  113.19   12.20 
  -1   1   4  121.19   12.30 
  -1   1   4  116.69   12.10 
   0  -1  -4   43.50    5.60 
   0   1   4   60.49    6.10 
   0   1   4   49.30    5.80 
  -1  -1  -4   22.10    3.20 
   1   1   4   24.50    3.40 
   1   1   4   30.50    4.30 
  -2  -1  -4   89.69    9.60 
   2   1   4   87.49   10.00 
   2   1   4   91.29    9.70 
   3   1   4   13.00    3.00 
   3   1   4   12.00    2.60 
   3   1   4   11.40    2.10 
   4   1   4   20.60    2.90 
   4   1   4   18.80    3.80 
  -5  -1  -4    1.90    1.30 
  -5  -1  -4    3.50    2.00 
   5   1   4    1.80    1.60 
  -6  -1  -4    5.90    2.30 
   6   1   4    5.30    2.10 
  -7  -1  -4    2.90    2.70 
   7   1   4    0.80    2.00 
  -8  -1  -4    0.10    4.80 
   8   1   4    0.70    2.20 
   8   1   4   -1.00    3.80 
  -9  -1  -4   -0.60    3.60 
   9   1   4    3.20    4.80 
   9   1   4    1.00    2.40 
 -10  -1  -4    3.70    4.70 
  10   1   4   13.10    5.80 
 -11  -1  -4    4.20    5.80 
  11   1   4    9.10    5.90 
  14  -2  -4   20.90    5.20 
 -14   2   4   10.80    8.70 
  13  -2  -4   -2.00    2.90 
 -13   2   4   -4.30    6.00 
  12  -2  -4   -2.40    2.40 
  12  -2  -4    3.40    7.20 
 -12   2   4   -4.00    4.90 
  11  -2  -4   30.50    4.90 
  11  -2  -4   36.60    6.00 
 -11   2   4   27.00    6.00 
  10  -2  -4   -2.10    3.00 
  10  -2  -4    0.70    3.20 
 -10   2   4   -0.30    3.30 
   9  -2  -4   43.10    5.50 
   9  -2  -4   39.80    6.10 
  -9   2   4   47.40    7.70 
   8  -2  -4   20.20    3.30 
   8  -2  -4   17.50    4.00 
  -8   2   4   21.00    4.20 
   7  -2  -4   33.50    4.30 
   7  -2  -4   34.10    4.60 
  -7   2   4   33.20    4.70 
   6  -2  -4    0.30    1.70 
   6  -2  -4   -0.80    1.00 
  -6   2   4    3.20    2.10 
   5  -2  -4   67.59    7.30 
  -5   2   4   66.89    7.60 
   4  -2  -4    6.00    1.50 
  -4   2   4    7.40    1.40 
  -4   2   4    7.20    2.20 
   3  -2  -4 1566.74  161.58 
  -3   2   4 1646.04  161.78 
   2  -2  -4  285.47   28.30 
   2  -2  -4  238.98   28.40 
  -2   2   4  313.87   28.80 
  -2   2   4  283.07   28.30 
   1  -2  -4    7.60    2.10 
  -1   2   4   10.80    2.60 
  -1   2   4   11.60    2.30 
   0  -2  -4    4.20    2.10 
   0   2   4    8.10    2.20 
   0   2   4    7.50    1.10 
   0   2   4   10.10    2.20 
   1   2   4   26.20    3.70 
   1   2   4   26.00    4.00 
   2   2   4  903.71   97.19 
   2   2   4 1017.60   97.29 
   3   2   4   12.10    3.20 
   3   2   4   12.20    2.70 
   4   2   4   12.40    2.90 
   4   2   4    5.70    3.00 
   4   2   4   15.90    2.30 
  -5  -2  -4    1.90    1.40 
  -5  -2  -4    1.00    2.20 
   5   2   4   -0.80    1.40 
  -6  -2  -4   11.70    3.00 
   6   2   4    0.50    4.10 
   6   2   4    8.60    2.00 
  -7  -2  -4   19.40    6.00 
   7   2   4   18.70    4.10 
   7   2   4   18.70    3.70 
  -8  -2  -4    2.60    3.70 
   8   2   4   10.80    4.20 
   8   2   4   -1.10    2.00 
  -9  -2  -4    3.50    4.30 
   9   2   4    3.20    4.10 
   9   2   4   -0.40    2.30 
 -10  -2  -4   13.90    6.10 
  10   2   4   19.60    5.70 
 -11  -2  -4    2.30    6.40 
  11   2   4   13.20    6.40 
  14  -3  -4    2.60    4.00 
 -14   3   4    3.70    7.40 
  13  -3  -4   12.20    7.10 
  13  -3  -4    2.10    2.90 
 -13   3   4   -1.90    5.80 
  12  -3  -4    2.40    4.40 
  12  -3  -4    0.70    2.40 
 -12   3   4   -2.80    4.90 
  11  -3  -4   22.60    4.30 
  11  -3  -4   35.40    5.90 
 -11   3   4   20.50    5.50 
  10  -3  -4    4.20    3.00 
  10  -3  -4   -0.10    2.20 
 -10   3   4    0.00    3.70 
   9  -3  -4   18.10    4.20 
   9  -3  -4   18.20    3.90 
  -9   3   4   19.30    5.40 
   8  -3  -4   20.10    3.30 
   8  -3  -4   16.20    3.70 
  -8   3   4   19.50    4.00 
   7  -3  -4    6.20    1.90 
   7  -3  -4    4.50    1.60 
  -7   3   4    6.00    2.30 
   6  -3  -4   12.30    2.40 
   6  -3  -4   15.20    2.50 
  -6   3   4   19.70    3.10 
   5  -3  -4   18.40    2.50 
  -5   3   4   13.70    2.10 
  -5   3   4   20.10    3.10 
   4  -3  -4   22.00    2.80 
  -4   3   4   20.90    3.30 
   3  -3  -4    4.60    1.10 
  -3   3   4    4.40    1.90 
   2  -3  -4   37.10    3.80 
   2  -3  -4   33.70    3.90 
  -2   3   4   35.90    4.30 
  -2   3   4   27.10    3.90 
   1  -3  -4    7.50    1.30 
  -1   3   4    7.30    2.10 
   0   3   4   22.80    3.10 
   0   3   4   13.20    3.20 
   1   3   4    0.30    1.60 
   2   3   4  130.59   13.70 
   2   3   4  122.69   13.90 
   3   3   4   43.30    6.40 
   3   3   4   51.89    6.00 
   4   3   4    0.20    2.90 
   4   3   4    8.40    2.40 
  -5  -3  -4    0.90    2.60 
  -5  -3  -4   -1.00    1.60 
  -6  -3  -4    0.80    5.00 
  -6  -3  -4    0.80    3.20 
  -7  -3  -4   50.39    7.20 
   7   3   4   55.29    7.90 
  -8  -3  -4    2.20    4.10 
   8   3   4    4.70    3.70 
  -9  -3  -4   -2.60    4.50 
   9   3   4   10.70    4.80 
 -10  -3  -4    1.80    6.10 
  10   3   4    4.50    5.60 
 -11  -3  -4   -0.50    6.90 
  11   3   4    3.20    5.90 
  14  -4  -4    4.00    3.40 
 -14   4   4   10.90    7.00 
  13  -4  -4    1.00    6.30 
  13  -4  -4   -0.20    2.80 
 -13   4   4    5.10    5.90 
  12  -4  -4   31.60    5.50 
  12  -4  -4   43.50    7.30 
 -12   4   4   42.60    7.60 
  11  -4  -4    8.30    3.70 
  11  -4  -4    4.30    2.10 
 -11   4   4    5.00    3.90 
  10  -4  -4    0.90    3.00 
  10  -4  -4   -0.30    1.80 
 -10   4   4    6.00    4.70 
   9  -4  -4    5.20    2.10 
   9  -4  -4    1.00    2.30 
  -9   4   4    3.70    3.50 
   8  -4  -4    0.10    1.80 
   8  -4  -4    0.50    1.60 
   7  -4  -4   80.09    8.80 
   7  -4  -4   76.29    8.40 
  -7   4   4   81.09    9.00 
   6  -4  -4    2.20    1.20 
  -6   4   4    2.60    1.10 
  -6   4   4    3.90    1.90 
   5  -4  -4   88.69    9.50 
  -5   4   4   88.79    9.80 
   4  -4  -4  132.99   14.00 
  -4   4   4  135.49   14.30 
   3  -4  -4   18.00    2.40 
  -3   4   4   13.70    2.80 
   2  -4  -4    0.10    0.90 
  -2   4   4   -1.20    1.20 
  -2   4   4    1.00    1.60 
   1  -4  -4   59.39    5.90 
  -1   4   4   56.69    6.40 
  -1   4   4   52.89    6.60 
   0   4   4   19.80    3.60 
   0   4   4   21.90    3.40 
   1   4   4   13.00    3.20 
   1   4   4   10.90    2.70 
   2   4   4   -2.40    2.30 
   2   4   4    1.90    2.20 
   3   4   4   31.50    5.70 
   3   4   4   39.90    5.10 
   4   4   4   97.09   10.90 
   4   4   4   85.09   11.20 
  -5  -4  -4   15.20    2.90 
  -5  -4  -4   11.70    3.90 
   5   4   4    7.20    4.60 
  -6  -4  -4    2.60    3.20 
  -6  -4  -4    2.10    2.00 
   6   4   4    0.70    3.10 
  -7  -4  -4   26.10    5.50 
   7   4   4   30.00    5.60 
  -8  -4  -4   -0.70    4.10 
   8   4   4    3.60    4.30 
  -9  -4  -4    7.80    6.00 
   9   4   4    4.20    4.70 
 -10  -4  -4    6.90    6.60 
  10   4   4    8.20    5.50 
  14  -5  -4    8.00    3.70 
 -14   5   4   36.20    8.60 
  13  -5  -4    0.50    2.80 
 -13   5   4    6.90    5.30 
  12  -5  -4    1.70    4.20 
  12  -5  -4    0.70    2.40 
 -12   5   4    4.60    4.50 
  11  -5  -4   25.90    5.30 
 -11   5   4   14.00    4.60 
  10  -5  -4    6.00    2.10 
  10  -5  -4    9.10    2.90 
 -10   5   4    4.20    5.30 
   9  -5  -4    3.30    2.30 
   9  -5  -4    2.20    2.50 
  -9   5   4    0.50    2.90 
   8  -5  -4    2.80    1.60 
   8  -5  -4    0.60    1.80 
  -8   5   4   -1.10    2.20 
   7  -5  -4   17.30    2.80 
   7  -5  -4   11.40    2.30 
  -7   5   4   17.20    3.30 
  -7   5   4   13.40    2.60 
   6  -5  -4    2.80    1.30 
  -6   5   4    4.80    2.20 
   5  -5  -4   19.00    2.90 
  -5   5   4   21.50    3.30 
   4  -5  -4    2.60    1.10 
  -4   5   4    2.10    1.80 
   3  -5  -4   13.90    2.20 
  -3   5   4   11.10    2.90 
   2  -5  -4    3.40    1.10 
  -2   5   4    5.80    2.10 
  -2   5   4    5.00    1.80 
   1  -5  -4   41.70    4.50 
  -1   5   4   38.70    5.20 
  -1   5   4   41.80    5.10 
   0   5   4    9.20    2.50 
   0   5   4    8.50    2.20 
   1   5   4    7.60    2.80 
   1   5   4    7.00    2.30 
   2   5   4   41.60    5.70 
   2   5   4   37.10    5.70 
   3   5   4    0.40    2.80 
   3   5   4   -1.20    3.10 
   4   5   4    1.90    3.40 
   4   5   4    6.10    3.00 
  -5  -5  -4   -0.50    1.90 
  -5  -5  -4    1.40    3.00 
  -6  -5  -4   11.30    3.80 
  -6  -5  -4   12.00    2.40 
   6   5   4    4.60    3.50 
  -7  -5  -4   10.30    4.10 
   7   5   4    7.20    3.80 
  -8  -5  -4    1.00    4.70 
   8   5   4   10.60    4.20 
  -9  -5  -4    1.60    6.30 
   9   5   4    2.80    5.20 
 -10  -5  -4    4.40    7.50 
  10   5   4    2.20    6.40 
 -14   6   4   31.20    7.90 
  13  -6  -4   -2.50    2.70 
 -13   6   4    7.00    5.10 
  12  -6  -4   14.00    3.00 
  11  -6  -4   22.50    4.40 
  11  -6  -4   29.60    5.40 
 -11   6   4   29.90    6.00 
  10  -6  -4   -0.90    1.90 
  10  -6  -4    1.70    2.90 
 -10   6   4    1.90    5.40 
   9  -6  -4    0.70    2.60 
   9  -6  -4    1.00    2.20 
   8  -6  -4   24.00    3.70 
   8  -6  -4   23.60    3.20 
  -8   6   4   18.50    4.30 
   7  -6  -4   -0.20    1.50 
  -7   6   4    0.10    2.20 
   6  -6  -4    3.60    1.50 
  -6   6   4    4.70    2.10 
   5  -6  -4   35.00    4.10 
  -5   6   4   27.20    4.40 
   4  -6  -4  195.68   20.10 
  -4   6   4  192.28   20.50 
   3  -6  -4    8.20    1.70 
  -3   6   4   11.10    2.90 
   2  -6  -4   11.20    2.10 
  -2   6   4   10.40    2.90 
   1  -6  -4    3.30    1.10 
  -1   6   4    4.20    2.60 
  -1   6   4    4.00    2.00 
   0   6   4   52.99    7.10 
   0   6   4   57.39    6.70 
   1   6   4   16.30    4.20 
   1   6   4   12.80    3.00 
   2   6   4  124.59   14.20 
   2   6   4  128.59   14.20 
   3   6   4   42.10    5.70 
   3   6   4   39.80    6.50 
  -4  -6  -4   30.00    5.30 
   4   6   4   31.70    5.20 
  -5  -6  -4   20.00    3.20 
  -5  -6  -4   18.00    4.60 
   5   6   4   12.80    3.50 
  -6  -6  -4  163.78   17.30 
  -6  -6  -4  166.18   18.40 
   6   6   4  158.98   18.30 
  -7  -6  -4    2.30    4.20 
   7   6   4    1.60    4.00 
  -8  -6  -4    4.00    5.70 
   8   6   4    5.70    5.10 
  -9  -6  -4   -0.10    7.40 
   9   6   4    1.40    5.60 
 -14   7   4   43.80    9.10 
 -13   7   4   42.80    8.90 
  12  -7  -4    6.50    2.60 
 -12   7   4    9.20    5.10 
  11  -7  -4   -1.10    2.20 
 -11   7   4    9.00    5.20 
  10  -7  -4    6.90    2.20 
 -10   7   4   10.40    6.20 
   9  -7  -4   17.30    3.50 
   9  -7  -4   25.00    3.40 
  -9   7   4   18.70    5.00 
   8  -7  -4    8.70    2.30 
  -8   7   4    9.90    3.40 
   7  -7  -4    0.10    1.60 
  -7   7   4    1.20    2.50 
   6  -7  -4    8.30    2.10 
  -6   7   4   12.70    2.90 
   5  -7  -4    6.80    1.90 
   5  -7  -4    6.50    1.80 
  -5   7   4   12.10    2.80 
   4  -7  -4   -1.80    1.30 
  -4   7   4   -0.50    2.40 
   3  -7  -4   -0.30    1.30 
  -3   7   4   -1.40    2.20 
   2  -7  -4    3.50    1.30 
  -2   7   4    1.60    2.60 
   1  -7  -4    4.40    1.20 
  -1   7   4    0.10    2.80 
   0   7   4    7.50    2.40 
   0   7   4    9.50    3.50 
   1   7   4   15.40    3.60 
   2   7   4    9.80    3.50 
   2   7   4   14.10    3.70 
   3   7   4   21.60    4.70 
   3   7   4   19.90    4.40 
  -4  -7  -4    1.30    2.20 
  -4  -7  -4    5.70    3.50 
   4   7   4    3.40    3.30 
  -5  -7  -4   17.30    3.30 
  -5  -7  -4   21.20    5.00 
   5   7   4   17.00    4.20 
  -6  -7  -4    0.90    4.50 
  -6  -7  -4    1.80    2.80 
   6   7   4    2.10    3.80 
  -7  -7  -4    1.60    4.90 
   7   7   4    1.70    4.50 
  -8  -7  -4   10.30    6.50 
   8   7   4    1.40    5.70 
 -14   8   4   34.80    8.30 
  13  -8  -4   10.60    3.40 
  12  -8  -4    6.10    2.80 
 -12   8   4   11.00    5.40 
  11  -8  -4   37.30    5.50 
 -11   8   4   42.90    7.20 
 -10   8   4   30.30    7.10 
   9  -8  -4   36.20    4.70 
  -9   8   4   32.30    8.00 
   8  -8  -4   -1.50    2.40 
  -8   8   4    2.80    3.60 
   7  -8  -4   80.19    8.70 
  -7   8   4   67.99    9.10 
   6  -8  -4   71.79    7.80 
   6  -8  -4   66.89    7.20 
  -6   8   4   62.89    8.40 
   5  -8  -4    9.70    2.30 
   5  -8  -4   12.30    2.20 
  -5   8   4   17.30    3.90 
   4  -8  -4    2.90    1.60 
  -4   8   4    2.00    3.00 
   3  -8  -4    4.10    1.70 
  -3   8   4    6.60    3.70 
   2  -8  -4   58.49    6.50 
  -2   8   4   56.39    7.80 
   1  -8  -4    9.20    2.10 
  -1   8   4    9.00    2.70 
   0   8   4   12.10    3.20 
   1   8   4   16.30    3.60 
   1   8   4   14.80    3.50 
   2   8   4   25.40    6.80 
   2   8   4   27.70    4.70 
   3   8   4   -3.10    3.40 
   3   8   4   -2.40    3.10 
  -4  -8  -4   88.09   11.60 
  -4  -8  -4   97.69   10.40 
   4   8   4   91.99   11.30 
  -5  -8  -4   52.79    8.10 
  -5  -8  -4   56.69    6.60 
   5   8   4   39.80    7.40 
  -6  -8  -4    8.00    5.40 
   6   8   4    2.80    4.40 
  -7  -8  -4    4.70    5.90 
   7   8   4    5.80    5.20 
  -8  -8  -4    5.40    8.40 
   8   8   4    3.60    6.20 
  14  -9  -4   -2.00    3.50 
 -14   9   4    8.20    7.10 
  13  -9  -4    0.80    3.10 
 -13   9   4    6.90    6.00 
  12  -9  -4    3.90    2.70 
 -12   9   4    9.10    5.60 
  11  -9  -4    5.10    2.40 
 -11   9   4    9.10    4.90 
  10  -9  -4    5.40    2.30 
 -10   9   4   14.40    4.90 
   9  -9  -4   15.30    2.80 
  -9   9   4   20.10    5.70 
   8  -9  -4   -1.90    2.40 
  -8   9   4    4.70    4.80 
   7  -9  -4   -1.20    2.10 
  -7   9   4   -0.30    5.10 
   6  -9  -4    6.80    1.80 
   6  -9  -4    3.40    2.00 
  -6   9   4    8.20    5.30 
   5  -9  -4   -1.40    1.80 
  -5   9   4    0.30    3.40 
   4  -9  -4   15.90    3.30 
  -4   9   4   13.60    4.00 
   3  -9  -4    0.80    1.80 
  -3   9   4   -2.80    2.60 
   2  -9  -4    1.30    1.60 
  -2   9   4    2.30    2.70 
   1  -9  -4   10.90    1.90 
  -1   9   4   11.80    3.10 
   0   9   4    3.40    3.10 
   1   9   4    5.50    3.40 
   2   9   4   15.00    4.10 
   3   9   4    3.70    3.50 
   3   9   4    0.90    3.90 
  -4  -9  -4    1.50    4.60 
  -4  -9  -4    4.30    2.90 
   4   9   4    5.10    3.70 
  -5  -9  -4    1.40    3.00 
  -5  -9  -4    8.20    5.00 
   5   9   4   -1.10    3.90 
  -6  -9  -4   -1.10    6.10 
   6   9   4    4.90    4.80 
  -7  -9  -4   14.00    8.50 
  14 -10  -4    4.00    3.60 
  13 -10  -4    2.40    3.40 
 -13  10   4    7.50    5.60 
  12 -10  -4    3.00    3.00 
 -12  10   4   11.60    5.50 
  11 -10  -4    1.40    2.60 
 -11  10   4   11.30    5.20 
  10 -10  -4    7.70    2.60 
 -10  10   4   13.50    5.40 
   9 -10  -4   22.10    4.40 
  -9  10   4   18.90    5.30 
   8 -10  -4   -1.80    2.40 
  -8  10   4    3.90    3.80 
   7 -10  -4   12.90    2.50 
   7 -10  -4   11.50    3.60 
  -7  10   4   17.20    4.70 
   6 -10  -4   -0.50    2.10 
   6 -10  -4   -0.10    2.10 
  -6  10   4    3.10    3.10 
   5 -10  -4    4.40    2.10 
  -5  10   4    4.10    3.20 
   4 -10  -4   -0.40    2.00 
  -4  10   4    0.30    3.10 
   3 -10  -4    1.60    1.90 
  -3  10   4   -0.70    3.00 
   2 -10  -4    2.70    1.80 
  -2  10   4    4.10    3.10 
   1 -10  -4    1.30    1.70 
  -1  10   4    0.60    3.30 
   0  10   4  108.79   12.80 
   1  10   4   11.50    4.20 
   2  10   4    9.30    4.40 
  -3 -10  -4   10.50    5.10 
  -3 -10  -4   10.60    3.30 
  -4 -10  -4   90.89   12.80 
  -4 -10  -4  101.79   11.20 
  -5 -10  -4   71.59   11.80 
  -5 -10  -4   71.29    9.40 
  -6 -10  -4    7.10    7.60 
  14 -11  -4   -1.30    4.00 
  13 -11  -4    7.10    3.70 
 -13  11   4   17.40    6.60 
  12 -11  -4    0.10    3.10 
 -12  11   4   11.70    6.40 
  11 -11  -4    2.10    2.90 
 -11  11   4    3.60    5.90 
  10 -11  -4   11.40    3.20 
 -10  11   4   18.70    6.30 
   9 -11  -4   -2.10    2.80 
  -9  11   4   -2.90    4.70 
   8 -11  -4   16.80    3.60 
  -8  11   4   20.40    5.30 
   7 -11  -4    5.70    3.20 
   7 -11  -4    5.60    2.40 
  -7  11   4    6.10    3.70 
   6 -11  -4   23.30    4.40 
   6 -11  -4   21.80    4.40 
  -6  11   4   22.50    5.20 
   5 -11  -4   -0.90    2.30 
  -5  11   4   -1.50    3.50 
   4 -11  -4    3.50    2.40 
  -4  11   4    2.20    3.40 
   3 -11  -4    0.60    2.10 
  -3  11   4    4.00    3.60 
   2 -11  -4    7.90    2.30 
  -2  11   4    6.80    3.70 
   1 -11  -4    3.60    2.00 
  -1  11   4    1.20    3.80 
   0  11   4    2.70    3.80 
   1  11   4    2.90    4.50 
   2  11   4    7.10    4.90 
  -3 -11  -4   -5.20    3.50 
  -3 -11  -4   -1.50    5.50 
  -4 -11  -4    2.10    7.20 
  -4 -11  -4   -1.80    4.30 
  -5 -11  -4    1.20    4.70 
  -5 -11  -4   10.50    7.50 
  13 -12  -4    6.10    3.90 
 -13  12   4   22.90    7.70 
  12 -12  -4   -1.60    3.30 
 -12  12   4   -4.90    7.00 
  11 -12  -4    4.50    3.20 
 -11  12   4    6.80    7.10 
  10 -12  -4    6.50    3.10 
 -10  12   4    2.90    5.30 
   9 -12  -4   19.50    3.90 
  -9  12   4   24.50    6.20 
   8 -12  -4   31.10    5.30 
  -8  12   4   22.30    6.40 
   7 -12  -4    0.40    2.80 
   7 -12  -4    0.60    2.80 
  -7  12   4    4.40    4.30 
   6 -12  -4   -0.10    4.10 
   6 -12  -4   -2.10    3.10 
  -6  12   4    2.80    4.10 
   5 -12  -4    6.70    3.30 
  -5  12   4    2.50    4.00 
   4 -12  -4   16.70    3.20 
  -4  12   4   17.80    4.60 
   3 -12  -4    9.50    2.80 
  -3  12   4   17.80    4.80 
   2 -12  -4    3.40    2.30 
  -2  12   4   -1.40    4.10 
  -1  12   4    0.10    4.20 
   0  12   4    9.00    4.70 
   1  12   4    1.70    4.90 
  -2 -12  -4    0.60    6.00 
  -2 -12  -4    7.90    3.60 
  -3 -12  -4   11.30    8.00 
  -3 -12  -4    8.60    5.00 
  -4 -12  -4    5.20    4.90 
  -4 -12  -4   16.60    8.10 
  13 -13  -4    2.20    4.10 
  12 -13  -4    2.80    3.60 
 -12  13   4   -3.30    6.80 
  11 -13  -4    2.10    3.60 
 -11  13   4    2.00    6.70 
  10 -13  -4    1.20    3.30 
 -10  13   4    3.70    6.60 
   9 -13  -4    7.90    3.40 
  -9  13   4   10.60    6.60 
   8 -13  -4    6.60    3.30 
  -8  13   4   13.60    5.90 
   7 -13  -4    0.90    3.10 
  -7  13   4   -1.80    4.80 
   6 -13  -4    0.00    3.90 
   6 -13  -4   -2.50    3.60 
  -6  13   4   -4.10    4.50 
   5 -13  -4    0.80    3.70 
  -5  13   4    3.00    4.80 
   4 -13  -4   -0.10    2.80 
  -4  13   4   -4.90    4.60 
   3 -13  -4   -1.60    2.90 
  -3  13   4    4.50    4.90 
  -2  13   4   -5.90    4.70 
  -1  13   4   -5.20    5.00 
   0  13   4   -2.70    5.10 
   1  13   4   -7.00    6.30 
  -2 -13  -4   -2.30    4.60 
  -2 -13  -4   -2.00    7.30 
  -3 -13  -4   -6.20    7.80 
  12 -14  -4   -2.00    4.00 
 -12  14   4    1.80    7.40 
  11 -14  -4   -1.90    3.70 
 -11  14   4    5.30    8.40 
  10 -14  -4    2.40    3.60 
 -10  14   4    5.70    8.50 
   9 -14  -4    7.40    3.90 
  -9  14   4   14.30    7.70 
   8 -14  -4    6.50    3.60 
  -8  14   4    9.30    6.40 
   7 -14  -4    7.50    3.50 
  -7  14   4   15.40    6.10 
   6 -14  -4   37.80    8.00 
   6 -14  -4   43.30    7.00 
  -6  14   4   36.00    8.00 
   5 -14  -4    0.70    5.30 
  -5  14   4   -5.30    5.50 
   4 -14  -4   -0.30    3.60 
  -4  14   4    8.80    5.30 
  -3  14   4    3.50    5.20 
  -2  14   4   24.30    6.50 
  -1  14   4   33.10    8.70 
   0  14   4    6.10    8.00 
  -1 -14  -4    0.70    8.00 
  -1 -14  -4    0.40    5.00 
  11 -15  -4    1.70    4.20 
 -11  15   4    6.80    9.20 
  10 -15  -4    3.10    4.10 
 -10  15   4   -2.40    8.50 
   9 -15  -4    6.90    4.20 
  -9  15   4   16.70    8.30 
   8 -15  -4    5.70    4.10 
  -8  15   4   -4.80    7.60 
   7 -15  -4   -2.20    3.80 
  -7  15   4    6.40    7.10 
   6 -15  -4   -0.60    3.90 
  -6  15   4    2.00    6.80 
   5 -15  -4   -0.50    4.10 
  -5  15   4   -1.90    6.50 
  -4  15   4   -4.50    6.30 
  -3  15   4    2.00    6.50 
  -2  15   4    4.30    7.50 
  -1  15   4    3.10    6.90 
   9 -16  -4    3.90    4.50 
  -9  16   4   -3.50   10.00 
   8 -16  -4    1.50    4.30 
  -8  16   4   -1.40    9.50 
   7 -16  -4    0.50    4.30 
  -7  16   4   -0.60    9.90 
   6 -16  -4    0.30    4.30 
  -6  16   4   -2.30    8.70 
  -5  16   4   12.20    9.10 
  -4  16   4    1.10    7.90 
  -3  16   4    5.00    7.80 
   4 -17   5   -1.10    5.80 
   4 -17   5   -3.50    6.70 
   5 -17   5    3.40    6.70 
   5 -17   5   -1.60    5.80 
   5 -17   5    5.40    4.80 
   6 -17   5    2.50    5.50 
   0 -16   5   16.50    7.40 
   1 -16   5    1.60    6.30 
   2 -16   5   -6.40    5.70 
   2 -16   5    5.90    5.50 
   3 -16   5    1.80    5.50 
   3 -16   5   -0.20    5.70 
   4 -16   5    9.60    5.80 
   4 -16   5    7.70    5.40 
   5 -16   5   17.80    5.70 
   5 -16   5   28.60    7.30 
   6 -16   5   -0.70    4.10 
   6 -16   5   -1.10    4.80 
   7 -16   5   -0.70    4.10 
   7 -16   5   -2.90    4.70 
   8 -16   5   -0.40    4.30 
   8 -16   5    4.60    5.10 
  -2 -15   5    3.30    6.30 
  -1 -15   5   -1.10    6.60 
   0 -15   5    1.00    5.50 
   1 -15   5    5.60    5.30 
   2 -15   5   -1.00    4.80 
   2 -15   5   -3.00    4.90 
   3 -15   5    5.50    4.80 
   3 -15   5    2.40    5.10 
   4 -15   5    9.30    4.80 
   4 -15   5    3.60    4.50 
   5 -15   5    2.50    4.20 
   5 -15   5    0.70    4.60 
   6 -15   5    0.30    5.10 
   6 -15   5    1.10    4.10 
   7 -15   5   -3.70    4.10 
   7 -15   5    3.20    3.80 
   8 -15   5   -2.20    4.30 
   8 -15   5    2.40    3.90 
   9 -15   5    2.30    4.00 
   9 -15   5   -4.10    4.40 
  10 -15   5   -6.10    4.80 
  10 -15   5    0.50    4.10 
  -3 -14   5   -1.80    6.40 
  -2 -14   5   -0.90    5.80 
  -1 -14   5    1.20    4.80 
   0 -14   5    6.20    4.70 
   1 -14   5    2.30    4.50 
   2 -14   5   -2.60    4.20 
   3 -14   5    1.20    4.50 
   3 -14   5    1.60    4.10 
   4 -14   5   -0.70    3.90 
   4 -14   5   -2.60    4.10 
   5 -14   5    5.00    4.30 
   5 -14   5    3.50    3.70 
   6 -14   5    8.50    5.60 
   6 -14   5    3.70    3.70 
   7 -14   5   15.50    3.90 
   7 -14   5   14.40    4.20 
   8 -14   5    0.40    3.80 
   8 -14   5   -2.90    3.50 
   9 -14   5   -0.10    3.90 
   9 -14   5   -4.90    4.30 
  10 -14   5    0.20    3.80 
  10 -14   5   -0.70    4.40 
  11 -14   5   22.20    5.10 
  11 -14   5    8.70    6.30 
  -5 -13   5   -1.10    6.00 
  -4 -13   5   -4.10    5.70 
  -3 -13   5   -2.50    5.00 
  -2 -13   5    2.90    4.80 
  -1 -13   5    8.30    4.40 
   0 -13   5    8.20    4.10 
   1 -13   5    0.00    3.80 
   2 -13   5    7.30    3.90 
   3 -13   5    2.00    3.60 
   3 -13   5   -0.10    3.50 
   4 -13   5   -1.40    3.30 
   4 -13   5    0.00    3.90 
   5 -13   5   -4.50    6.10 
   5 -13   5   -3.70    3.20 
   6 -13   5   -1.10    3.20 
   6 -13   5    0.40    3.70 
   7 -13   5    4.30    3.10 
   7 -13   5   -0.50    3.30 
   8 -13   5   -1.70    3.10 
   8 -13   5   -2.10    3.40 
   9 -13   5   -2.00    3.70 
   9 -13   5    2.70    3.30 
  10 -13   5    4.00    3.60 
  -6 -12   5    3.90    6.00 
  -5 -12   5   -5.30    5.70 
  -4 -12   5   -3.90    4.80 
  -3 -12   5    6.90    4.40 
  -2 -12   5   38.70    6.70 
  -1 -12   5   69.79    9.10 
   0 -12   5    3.50    3.60 
   1 -12   5    2.40    3.40 
   2 -12   5    2.10    3.40 
   2 -12   5   -0.40    3.30 
   3 -12   5   22.70    5.20 
   3 -12   5   20.40    5.30 
   4 -12   5    0.50    3.40 
   4 -12   5    3.10    4.90 
   5 -12   5    2.60    3.60 
   5 -12   5    2.50    3.30 
   6 -12   5    0.00    3.20 
   6 -12   5    3.60    3.70 
   7 -12   5    0.30    3.70 
   8 -12   5    0.60    2.80 
   8 -12   5   -3.80    3.50 
   9 -12   5   -3.60    3.40 
   9 -12   5    2.60    3.00 
  10 -12   5   -0.50    4.20 
  10 -12   5    5.60    3.30 
  11 -12   5   25.60    6.50 
  12 -12   5    5.40    4.20 
  -7 -11   5    0.80    5.70 
  -6 -11   5    5.40    5.90 
  -4 -11   5    0.50    4.10 
  -3 -11   5    2.20    3.80 
  -2 -11   5   17.50    4.30 
  -1 -11   5   10.60    3.60 
   0 -11   5    9.10    3.40 
   1 -11   5   -1.50    3.10 
   2 -11   5    0.90    3.60 
   2 -11   5   -0.10    4.10 
   3 -11   5   -1.70    3.90 
   3 -11   5   -2.90    3.30 
   4 -11   5    0.60    3.00 
   4 -11   5    0.50    3.30 
   5 -11   5    1.60    2.80 
   5 -11   5    3.00    3.60 
   6 -11   5   29.00    4.50 
   6 -11   5   28.40    7.10 
   7 -11   5   18.50    5.80 
   7 -11   5   19.80    4.10 
   8 -11   5   -2.20    3.90 
   8 -11   5    1.00    2.70 
   9 -11   5   -3.30    2.70 
  10 -11   5   -2.20    3.10 
  11 -11   5    8.10    3.60 
  12 -11   5   -0.70    4.20 
  -8 -10   5    5.60    5.60 
  -7 -10   5    4.50    6.00 
  -6 -10   5    8.80    4.50 
  -5 -10   5    2.40    3.90 
  -4 -10   5    1.10    3.40 
  -3 -10   5   -0.40    3.20 
  -2 -10   5    0.50    2.90 
  -1 -10   5   -1.30    2.80 
   0 -10   5    0.60    2.70 
   1 -10   5    3.70    4.30 
   2 -10   5   22.80    4.60 
   2 -10   5   21.40    4.70 
   3 -10   5    3.60    2.60 
   3 -10   5    3.60    2.80 
   4 -10   5    7.60    2.80 
   4 -10   5   12.10    2.90 
   5 -10   5   38.50    6.00 
   5 -10   5   43.00    5.30 
   6 -10   5  283.27   29.10 
   6 -10   5  285.67   30.20 
   7 -10   5   24.90    6.20 
   8 -10   5    1.30    4.60 
   8 -10   5   -1.30    2.50 
   9 -10   5   -2.20    3.70 
   9 -10   5    4.80    2.70 
  10 -10   5  113.79   15.20 
  10 -10   5  144.09   14.80 
  11 -10   5   52.19    7.80 
  12 -10   5   -0.10    3.90 
  13 -10   5   28.50    8.50 
  -9  -9   5    2.70    5.90 
  -8  -9   5    3.60    5.70 
  -7  -9   5    2.10    4.30 
  -6  -9   5   -1.90    3.50 
  -5  -9   5    3.90    3.20 
  -4  -9   5    3.60    2.90 
  -3  -9   5   68.69    8.40 
  -2  -9   5   16.00    3.90 
  -1  -9   5   -1.70    2.50 
   0  -9   5    2.00    3.40 
   1  -9   5    5.10    2.50 
   2  -9   5    1.20    2.40 
   2  -9   5    0.70    2.50 
   3  -9   5    0.70    2.20 
   3  -9   5   -0.30    2.20 
   4  -9   5   14.30    3.50 
   4  -9   5   14.20    3.10 
   5  -9   5    7.90    3.10 
   5  -9   5    3.00    2.30 
   5  -9   5    5.80    2.00 
   6  -9   5    4.70    2.50 
   7  -9   5    8.20    3.00 
   8  -9   5    1.70    2.40 
   8  -9   5   -2.50    3.60 
   9  -9   5    5.00    2.60 
   9  -9   5    3.70    5.10 
  10  -9   5    6.30    5.00 
  10  -9   5   23.50    5.00 
  11  -9   5    8.90    3.40 
  12  -9   5    2.50    3.90 
  13  -9   5   -1.40    4.50 
  13  -9   5   11.80    5.40 
  -9  -8   5    0.70    5.70 
  -8  -8   5   11.60    4.50 
  -7  -8   5    0.40    3.60 
  -6  -8   5    0.60    3.10 
  -5  -8   5    3.80    2.90 
  -4  -8   5   47.90    6.30 
  -3  -8   5   56.99    7.10 
  -2  -8   5   19.00    3.60 
  -1  -8   5    2.70    2.90 
   0  -8   5  140.39   15.20 
   1  -8   5    8.70    2.40 
   2  -8   5   29.60    4.30 
   2  -8   5   30.60    4.50 
   3  -8   5   16.30    3.50 
   3  -8   5   16.70    3.10 
   4  -8   5    7.30    2.50 
   4  -8   5   11.40    2.80 
   4  -8   5   10.30    2.30 
   5  -8   5   19.70    2.80 
   5  -8   5   20.40    3.90 
   6  -8   5    7.30    2.60 
   7  -8   5   18.70    4.30 
   8  -8   5   19.10    4.20 
   8  -8   5   20.10    6.00 
   9  -8   5   -2.70    5.70 
   9  -8   5   -0.30    2.50 
  10  -8   5   -1.30    2.90 
  11  -8   5    5.00    3.40 
  12  -8   5    3.50    3.80 
  12  -8   5    3.90    4.80 
 -10  -7   5   -2.80    5.20 
  -9  -7   5    1.10    4.40 
  -8  -7   5    5.20    3.70 
  -7  -7   5   34.70    5.50 
  -6  -7   5   24.00    4.20 
  -5  -7   5    5.40    2.60 
  -4  -7   5   25.40    3.90 
  -3  -7   5    3.80    2.10 
  -2  -7   5   12.10    3.50 
  -1  -7   5    0.60    2.00 
   0  -7   5    6.30    2.10 
   1  -7   5    6.40    2.10 
   1  -7   5    7.20    2.30 
   2  -7   5    3.00    1.90 
   2  -7   5    4.60    1.90 
   3  -7   5    1.70    1.60 
   3  -7   5    2.60    1.70 
   4  -7   5    1.50    1.70 
   4  -7   5    1.30    1.40 
   5  -7   5   -0.10    2.00 
   6  -7   5    5.40    2.20 
   7  -7   5    2.70    2.50 
   7  -7   5    4.40    2.60 
   8  -7   5    3.30    2.50 
   8  -7   5    0.20    4.00 
   9  -7   5   -2.60    5.80 
   9  -7   5    1.10    2.50 
  10  -7   5   -3.10    4.10 
  10  -7   5   -2.00    2.70 
  11  -7   5    0.40    4.10 
  11  -7   5    0.50    3.40 
  12  -7   5   31.50    7.40 
 -11  -6   5    2.30    6.00 
 -10  -6   5    3.50    4.60 
  -9  -6   5   11.70    4.20 
  -8  -6   5   16.10    4.30 
  -7  -6   5   13.30    3.60 
  -6  -6   5   -0.80    2.40 
  -5  -6   5   20.60    3.50 
  -4  -6   5   15.80    3.00 
  -3  -6   5   12.50    3.30 
  -2  -6   5   26.80    4.00 
  -1  -6   5   53.69    6.30 
   0  -6   5   16.40    2.90 
   1  -6   5   99.09   11.20 
   1  -6   5  100.09   10.70 
   2  -6   5   12.10    2.60 
   2  -6   5    8.90    2.10 
   2  -6   5   12.60    2.50 
   3  -6   5   20.30    2.60 
   3  -6   5   17.00    2.80 
   3  -6   5   22.60    3.40 
   4  -6   5  580.44   59.39 
   5  -6   5   78.19    9.10 
   6  -6   5   38.70    5.50 
   7  -6   5   16.20    4.60 
   7  -6   5   13.50    3.00 
   8  -6   5   15.20    4.20 
   8  -6   5   23.40    6.80 
   9  -6   5   18.20    6.30 
   9  -6   5   25.80    5.20 
  10  -6   5    3.70    3.90 
  10  -6   5   -1.20    2.70 
  11  -6   5    2.60    3.30 
  11  -6   5   13.00    3.90 
 -11  -5   5    6.20    6.30 
 -10  -5   5    1.20    3.90 
  -9  -5   5    4.00    3.50 
  -8  -5   5   33.10    5.10 
  -7  -5   5   43.60    5.70 
  -6  -5   5   35.00    4.60 
  -5  -5   5   16.40    3.00 
  -4  -5   5    0.80    2.20 
  -3  -5   5    1.50    1.90 
  -2  -5   5   25.30    3.60 
  -1  -5   5   14.20    2.50 
   0  -5   5   17.70    2.70 
  -1   5  -5   68.79    7.10 
  -1   5  -5   62.99    7.40 
   1  -5   5   70.69    7.90 
   1  -5   5   65.69    7.30 
   2  -5   5    0.10    1.50 
   2  -5   5    2.70    1.10 
   2  -5   5    2.20    1.40 
   3  -5   5    1.50    1.50 
   4  -5   5   37.80    4.90 
   5  -5   5   32.50    4.70 
   6  -5   5   -0.80    2.20 
   7  -5   5    3.90    3.60 
   7  -5   5    0.90    2.00 
   8  -5   5    3.80    2.40 
   8  -5   5    3.80    4.70 
   9  -5   5   27.40    7.40 
   9  -5   5   30.50    7.40 
  10  -5   5    3.50    3.00 
  10  -5   5    7.80    3.90 
 -12  -4   5   -6.80    6.50 
 -11  -4   5    7.80    5.10 
 -10  -4   5   22.80    5.10 
  -9  -4   5   16.90    4.20 
  -8  -4   5   -1.90    2.50 
  -7  -4   5   26.30    3.90 
  -6  -4   5   -0.80    2.00 
  -5  -4   5    9.90    3.20 
  -4  -4   5    6.60    2.20 
  -3  -4   5   74.99    8.40 
  -2  -4   5   -0.20    1.30 
  -1  -4   5  375.26   38.30 
   0   4  -5    0.00    1.80 
   0  -4   5    1.60    1.20 
   0  -4   5    2.00    1.60 
  -1   4  -5   27.00    3.20 
   1  -4   5   25.60    3.70 
   1  -4   5   24.90    3.10 
  -2   4  -5   10.10    1.50 
  -2   4  -5   10.90    1.90 
   2  -4   5   12.10    2.40 
   2  -4   5   10.10    1.70 
   3  -4   5    9.90    2.30 
   4  -4   5   43.70    5.40 
   5  -4   5   27.20    4.30 
   6  -4   5  118.39   13.50 
   7  -4   5    2.70    3.80 
   7  -4   5    1.30    1.90 
   8  -4   5    3.70    2.40 
   8  -4   5    6.50    5.20 
   9  -4   5   73.69    9.90 
   9  -4   5   70.89    9.50 
  10  -4   5    1.00    3.70 
  10  -4   5    0.20    3.10 
 -12  -3   5    1.90    5.50 
 -11  -3   5   10.50    4.70 
 -10  -3   5    0.70    3.50 
  -9  -3   5   62.69    7.70 
  -8  -3   5   34.40    4.90 
  -7  -3   5   14.50    2.80 
  -6  -3   5    6.20    1.90 
  -5  -3   5   19.00    3.30 
  -4  -3   5  130.39   13.90 
  -3  -3   5   -0.20    1.30 
  -2  -3   5   51.39    5.80 
  -1  -3   5    0.50    1.10 
   0   3  -5   21.50    2.70 
   0  -3   5   21.40    2.90 
   0  -3   5   23.50    3.50 
  -1   3  -5   10.70    1.80 
   1  -3   5   11.90    2.50 
   1  -3   5   14.40    2.10 
  -2   3  -5   23.10    2.60 
   2  -3   5   24.70    3.40 
   2  -3   5   22.00    2.70 
   3  -3   5    5.40    1.60 
   4  -3   5   26.50    4.20 
   5  -3   5   15.40    4.30 
   6  -3   5    6.50    3.70 
   6  -3   5   -0.40    1.70 
  -7   3  -5    3.30    2.00 
  -7   3  -5    4.60    2.60 
   7  -3   5    3.50    3.80 
   7  -3   5    2.50    2.00 
  -8   3  -5   10.80    4.60 
  -8   3  -5    8.90    2.90 
   8  -3   5   10.70    2.70 
   8  -3   5   11.60    5.50 
  -9   3  -5   15.40    3.80 
   9  -3   5   21.50    4.80 
   9  -3   5   24.80    5.20 
  10  -3   5    7.50    6.20 
  10  -3   5   33.20    6.60 
 -13  -2   5   -6.50    8.90 
 -12  -2   5   -3.40    5.30 
 -10  -2   5   14.00    4.20 
  -9  -2   5    4.30    2.80 
  -8  -2   5    2.90    2.20 
  -7  -2   5    0.30    1.80 
  -6  -2   5   24.40    4.20 
  -5  -2   5    3.90    1.80 
  -4  -2   5   51.09    5.90 
  -3  -2   5  449.26   45.70 
  -2  -2   5 1076.59  108.49 
   1   2  -5   32.90    3.60 
  -1  -2   5   26.80    4.10 
  -1  -2   5   32.00    3.80 
   0   2  -5   14.20    2.00 
   0  -2   5   14.40    2.70 
   0  -2   5   18.00    2.70 
  -1   2  -5   47.40    5.30 
   1  -2   5   52.79    5.90 
   1  -2   5   49.80    5.50 
  -2   2  -5   12.60    1.80 
   2  -2   5   11.90    1.90 
   2  -2   5   11.90    2.30 
  -3   2  -5   28.80    3.10 
   3  -2   5   27.10    3.20 
  -4   2  -5  254.47   25.70 
  -4   2  -5  261.37   25.80 
   4  -2   5  244.08   26.40 
  -5   2  -5   31.40    4.00 
  -5   2  -5   28.80    4.20 
   5  -2   5   35.20    5.90 
  -6   2  -5    1.50    1.90 
  -6   2  -5    1.80    2.70 
   6  -2   5    0.20    1.80 
   6  -2   5    1.80    3.60 
  -7   2  -5   58.89    6.90 
   7  -2   5   61.09    7.20 
   7  -2   5   59.09    8.90 
  -8   2  -5  228.28   24.00 
   8  -2   5  219.58   24.30 
   8  -2   5  247.68   25.40 
  -9   2  -5   38.30    5.90 
   9  -2   5   44.70    6.40 
 -10   2  -5   22.70    4.50 
  10  -2   5   24.40    5.30 
  11  -2   5   45.10    9.40 
 -13  -1   5   -6.10    7.10 
 -12  -1   5   13.60    5.80 
 -11  -1   5   -3.40    3.80 
 -10  -1   5    2.80    3.20 
  -9  -1   5   42.40    5.80 
  -8  -1   5   20.40    3.70 
  -7  -1   5    3.30    3.10 
  -6  -1   5    0.20    2.10 
  -5  -1   5   37.40    4.80 
  -4  -1   5   34.20    4.30 
  -3  -1   5    4.40    1.70 
  -2  -1   5   98.99   10.50 
   1   1  -5   41.10    4.70 
  -1  -1   5   45.90    5.20 
  -1  -1   5   42.80    5.10 
   0   1  -5   72.69    7.60 
   0  -1   5   70.99    7.90 
   0  -1   5   73.69    8.00 
  -1   1  -5   94.19    9.80 
   1  -1   5   95.19   10.20 
   1  -1   5   93.19    9.90 
  -2   1  -5    2.50    1.20 
   2  -1   5    1.80    1.20 
   2  -1   5    2.50    1.70 
  -3   1  -5    1.60    1.40 
   3  -1   5    3.00    1.50 
   3  -1   5    5.30    2.50 
  -4   1  -5   13.90    3.00 
   4  -1   5   21.50    4.50 
  -5   1  -5    9.70    2.50 
  -5   1  -5    5.00    2.80 
   5  -1   5    9.20    3.40 
   5  -1   5    6.10    1.90 
  -6   1  -5    7.20    2.40 
   6  -1   5    5.80    3.70 
   6  -1   5    5.10    2.00 
  -7   1  -5    1.30    2.60 
   7  -1   5   -2.90    4.20 
   7  -1   5   -1.60    2.10 
  -8   1  -5    4.60    2.90 
   8  -1   5    6.10    3.90 
   8  -1   5    0.90    2.20 
  -9   1  -5    3.10    3.70 
   9  -1   5    2.40    2.80 
   9  -1   5   11.80    4.60 
 -10   1  -5    0.50    5.00 
  10  -1   5   11.50    5.80 
  10  -1   5    0.60    3.20 
  11  -1   5   -0.70    4.40 
  11  -1   5   13.90    6.10 
  12  -1   5   85.39   13.50 
 -13   0   5   -8.70    6.60 
  11   0  -5   23.10    4.30 
 -11   0   5   17.50    5.10 
  10   0  -5    6.40    3.20 
 -10   0   5   -1.80    3.00 
   9   0  -5   38.30    5.00 
  -9   0   5   33.50    5.40 
   8   0  -5   10.30    2.60 
  -8   0   5   15.30    4.20 
   7   0  -5    1.80    1.30 
  -7   0   5    2.70    2.80 
   6   0  -5    4.30    1.40 
  -6   0   5    8.60    2.50 
   5   0  -5  553.84   55.69 
  -5   0   5  547.05   55.89 
  -4   0   5   56.99    6.50 
  -3   0   5   29.80    4.00 
  -2   0   5   24.00    3.30 
  -2   0   5   29.20    3.80 
   1   0  -5  500.75   52.29 
  -1   0   5  526.35   52.39 
  -1   0   5  525.05   52.39 
   0   0  -5 3449.65  349.47 
   0   0   5 3406.56  349.47 
   0   0   5 3579.04  349.47 
  -1   0  -5   18.40    2.90 
   1   0   5   26.70    3.60 
   1   0   5   21.80    3.20 
  -2   0  -5    4.50    1.50 
   2   0   5    5.90    2.50 
   2   0   5    2.40    1.70 
  -3   0  -5   36.20    4.90 
   3   0   5   41.10    5.70 
   3   0   5   40.40    4.80 
   4   0   5   19.70    3.10 
   4   0   5   19.10    4.50 
  -5   0  -5  138.49   13.80 
  -5   0  -5  132.99   14.20 
   5   0   5  125.39   14.90 
   5   0   5  137.19   14.10 
  -6   0  -5   74.29    8.00 
   6   0   5   57.09    9.10 
   6   0   5   73.09    8.00 
  -7   0  -5    3.70    3.10 
   7   0   5    3.10    2.10 
  -8   0  -5   66.99    8.70 
   8   0   5   62.49    8.40 
   8   0   5   84.59    9.80 
  -9   0  -5   -0.90    5.20 
   9   0   5    0.80    2.60 
   9   0   5    9.20    4.90 
 -10   0  -5    6.10    4.90 
  12   0   5   51.09   11.20 
 -14   1   5   -8.40    8.30 
  13  -1  -5   31.50    6.50 
 -13   1   5   40.70    9.10 
  12  -1  -5    7.10    2.60 
 -12   1   5    2.60    5.10 
  11  -1  -5    5.80    2.30 
 -11   1   5   -3.50    3.50 
  10  -1  -5    3.60    2.60 
 -10   1   5   -1.80    3.20 
   9  -1  -5    3.30    2.00 
  -9   1   5    3.40    3.30 
   8  -1  -5    2.10    1.50 
  -8   1   5    5.70    4.10 
   7  -1  -5   10.70    2.40 
  -7   1   5   13.00    3.40 
   6  -1  -5    9.50    1.90 
  -6   1   5   11.70    2.90 
   5  -1  -5   82.59    8.80 
  -5   1   5   83.09    9.20 
   4  -1  -5   66.09    7.20 
  -4   1   5   68.39    7.60 
   3  -1  -5   91.99    9.80 
  -3   1   5   90.09   10.10 
  -3   1   5   98.39    9.90 
  -2   1   5   24.20    2.80 
  -2   1   5   19.30    3.30 
   1  -1  -5   23.10    4.00 
  -1   1   5   40.50    4.00 
  -1   1   5   36.50    4.30 
   0  -1  -5    1.80    1.70 
   0   1   5    6.10    2.10 
   0   1   5    3.70    1.60 
  -1  -1  -5    1.50    1.70 
   1   1   5    0.20    1.20 
   1   1   5    2.10    2.30 
   2   1   5    6.40    2.10 
   2   1   5    9.20    2.80 
   3   1   5   98.99   11.10 
   3   1   5   96.09   10.60 
   4   1   5    0.10    1.90 
   4   1   5    1.70    1.50 
   4   1   5   -1.20    2.30 
  -5  -1  -5   -0.20    2.10 
  -5  -1  -5    0.90    1.30 
   5   1   5    0.80    1.70 
  -6  -1  -5    6.00    2.80 
   6   1   5    2.60    2.10 
  -7  -1  -5    6.40    3.20 
   7   1   5   -2.80    3.60 
   7   1   5    2.20    2.20 
  -8  -1  -5    4.40    5.80 
   8   1   5    2.70    2.40 
   8   1   5    5.20    4.00 
  -9  -1  -5    5.10    4.40 
   9   1   5   27.00    7.10 
  10   1   5   40.20    9.40 
 -11  -1  -5   10.20    5.50 
  11   1   5   33.50    9.20 
  14  -2  -5    1.40    4.00 
 -14   2   5   -6.20    7.60 
  13  -2  -5    7.20    3.20 
 -13   2   5   11.10    6.90 
  12  -2  -5   -0.60    2.40 
 -12   2   5    0.20    4.90 
  11  -2  -5   -1.90    2.20 
 -11   2   5    0.80    3.70 
  10  -2  -5    9.70    2.70 
 -10   2   5   12.30    4.00 
   9  -2  -5   62.39    7.40 
  -9   2   5   60.49    8.30 
   8  -2  -5    2.00    1.70 
  -8   2   5    7.40    3.80 
   7  -2  -5   39.20    4.80 
  -7   2   5   40.00    5.40 
   6  -2  -5    1.90    1.20 
  -6   2   5    2.20    2.20 
   5  -2  -5  207.68   21.20 
  -5   2   5  203.88   21.40 
   4  -2  -5    0.60    0.90 
  -4   2   5    0.40    1.00 
  -4   2   5   -1.50    1.60 
  -4   2   5   -0.50    0.90 
   3  -2  -5   27.50    3.30 
   2  -2  -5   17.80    2.40 
  -2   2   5   22.90    2.90 
  -2   2   5   14.00    3.00 
  -1   2   5   31.50    4.10 
  -1   2   5   28.00    3.90 
   0   2   5  156.18   16.50 
   0   2   5  156.58   16.40 
   1   2   5    5.60    1.90 
   1   2   5    5.40    2.20 
   2   2   5  506.55   51.99 
   2   2   5  511.25   51.99 
   3   2   5  211.68   22.90 
   3   2   5  227.98   23.30 
   4   2   5   19.80    4.70 
   4   2   5   21.20    3.50 
  -5  -2  -5    6.70    2.80 
  -5  -2  -5   11.20    1.90 
   5   2   5    9.20    1.90 
  -6  -2  -5   74.29    8.70 
  -6  -2  -5   74.39    7.70 
   6   2   5   49.40    9.20 
   6   2   5   73.19    7.60 
  -7  -2  -5  385.76   40.20 
   7   2   5  421.66   40.30 
   7   2   5  338.87   38.70 
  -8  -2  -5    1.70    4.40 
   8   2   5   -2.60    1.80 
   8   2   5    7.30    4.40 
  -9  -2  -5    3.20    4.70 
   9   2   5   12.70    5.40 
 -10  -2  -5   10.70    5.90 
  10   2   5   30.00    8.30 
 -11  -2  -5    8.90    6.10 
  11   2   5   17.90    7.00 
  14  -3  -5   24.90    6.10 
 -14   3   5   33.40    9.00 
  13  -3  -5    1.20    2.90 
 -13   3   5    6.00    5.90 
  12  -3  -5    2.10    2.50 
 -12   3   5    1.90    4.80 
  11  -3  -5    8.50    2.30 
 -11   3   5   12.60    4.20 
  10  -3  -5   39.40    5.30 
 -10   3   5   36.70    6.10 
   9  -3  -5    1.90    2.00 
  -9   3   5    3.20    4.60 
   8  -3  -5   14.50    3.20 
  -8   3   5   18.40    4.10 
   7  -3  -5   -1.00    1.30 
  -7   3   5   -2.30    2.10 
   6  -3  -5    5.60    1.40 
  -6   3   5    9.30    2.80 
   5  -3  -5   51.29    5.70 
  -5   3   5   50.59    6.10 
   4  -3  -5    0.50    1.00 
  -4   3   5    0.80    1.80 
   3  -3  -5   21.60    2.50 
   3  -3  -5   26.40    2.90 
  -3   3   5   20.10    3.40 
  -3   3   5   19.90    2.70 
   2  -3  -5   25.60    2.80 
  -2   3   5   21.20    3.40 
  -2   3   5   21.10    3.20 
  -1   3   5    8.40    2.60 
  -1   3   5   14.20    2.80 
   0   3   5    1.00    1.50 
   1   3   5    4.50    2.00 
   1   3   5    2.50    2.30 
   2   3   5    2.30    2.10 
   3   3   5   35.50    4.40 
   3   3   5   19.80    5.40 
   4   3   5   38.10    7.30 
   4   3   5   56.89    6.20 
  -5  -3  -5   23.90    5.00 
  -5  -3  -5   20.30    3.60 
   5   3   5   19.40    5.70 
  -6  -3  -5    3.80    4.00 
  -6  -3  -5    2.80    2.40 
   6   3   5    0.90    3.40 
  -7  -3  -5   -4.40    3.50 
   7   3   5    6.60    4.00 
  -8  -3  -5    1.80    4.40 
   8   3   5    8.70    4.00 
  -9  -3  -5    1.10    5.30 
   9   3   5    8.50    5.20 
 -10  -3  -5   11.10    6.70 
  10   3   5   13.30    6.00 
  14  -4  -5   -1.60    3.40 
 -14   4   5   10.80    7.10 
  13  -4  -5    1.40    2.90 
 -13   4   5    5.20    5.70 
  12  -4  -5    1.40    2.40 
 -12   4   5   11.30    4.80 
  11  -4  -5   30.90    4.70 
 -11   4   5   33.70    6.00 
  10  -4  -5    0.50    1.70 
 -10   4   5    4.20    3.30 
   9  -4  -5    1.80    2.30 
  -9   4   5    0.10    5.00 
   8  -4  -5   42.80    5.10 
  -8   4   5   37.00    5.80 
   7  -4  -5    3.90    1.50 
  -7   4   5    2.10    1.50 
  -7   4   5    2.70    2.10 
   6  -4  -5  489.15   49.10 
  -6   4   5  474.95   49.30 
   5  -4  -5   97.79   10.50 
  -5   4   5   98.99   10.90 
   4  -4  -5    1.10    1.00 
  -4   4   5    0.90    1.70 
   3  -4  -5   62.79    6.60 
   3  -4  -5   53.69    6.30 
  -3   4   5   63.99    6.50 
  -3   4   5   59.99    7.00 
   2  -4  -5   53.69    5.70 
  -2   4   5   50.69    6.30 
  -2   4   5   52.69    6.00 
   1  -4  -5  149.29   15.00 
  -1   4   5  145.09   15.40 
  -1   4   5  145.09   15.70 
   0   4   5   13.90    3.10 
   0   4   5   18.70    3.30 
   1   4   5   -0.80    1.90 
   2   4   5    3.30    2.40 
   2   4   5    3.40    2.60 
   3   4   5   26.00    5.90 
   3   4   5   36.00    5.00 
   4   4   5    1.90    3.50 
  -5  -4  -5  114.19   11.60 
  -5  -4  -5  110.19   12.60 
   5   4   5   95.39   12.60 
  -6  -4  -5   26.90    5.30 
  -6  -4  -5   23.70    4.00 
   6   4   5   31.70    6.00 
  -7  -4  -5    4.80    4.00 
   7   4   5    9.30    3.80 
  -8  -4  -5    2.50    4.90 
   8   4   5    4.90    4.70 
  -9  -4  -5    9.80    6.70 
   9   4   5   30.40    8.10 
 -10  -4  -5    2.40    7.30 
  10   4   5    8.90    5.60 
 -14   5   5   47.40   10.20 
  13  -5  -5   -3.20    2.60 
 -13   5   5    3.90    5.20 
  12  -5  -5    1.30    2.40 
 -12   5   5    3.50    4.80 
  11  -5  -5   10.60    2.40 
 -11   5   5   11.00    4.00 
  10  -5  -5   23.70    3.70 
 -10   5   5   25.00    4.90 
   9  -5  -5    2.10    2.20 
  -9   5   5    2.30    4.70 
   8  -5  -5    0.80    1.70 
  -8   5   5    0.80    2.50 
  -8   5   5   -0.50    2.50 
   7  -5  -5    1.50    1.40 
  -7   5   5   -2.40    2.20 
   6  -5  -5   29.70    3.60 
  -6   5   5   23.00    4.10 
   5  -5  -5   -0.50    1.20 
  -5   5   5    0.70    1.80 
   4  -5  -5   -0.80    1.10 
  -4   5   5    0.90    2.00 
   3  -5  -5    2.40    1.20 
  -3   5   5    3.30    1.50 
  -3   5   5    3.60    2.10 
   2  -5  -5    0.10    0.90 
  -2   5   5    0.10    1.50 
  -2   5   5    0.80    2.10 
   1  -5  -5   11.20    1.80 
  -1   5   5   10.40    2.80 
  -1   5   5   10.50    2.50 
   0   5   5    3.40    2.30 
   0   5   5    3.50    1.90 
   1   5   5    0.50    2.40 
   2   5   5    0.80    3.10 
   3   5   5    3.50    3.10 
   3   5   5   -1.40    2.80 
   4   5   5   -1.60    4.10 
   4   5   5    3.30    3.10 
  -5  -5  -5    2.10    3.40 
  -5  -5  -5   -1.50    2.10 
   5   5   5   -0.50    3.00 
  -6  -5  -5    8.10    2.50 
  -6  -5  -5    2.70    3.90 
   6   5   5    7.60    3.50 
  -7  -5  -5   15.00    4.90 
   7   5   5   14.80    4.50 
  -8  -5  -5    0.30    5.20 
   8   5   5    6.20    4.70 
  -9  -5  -5   10.00    7.40 
   9   5   5   18.30    6.00 
  14  -6  -5   -1.10    3.00 
 -14   6   5   13.90    6.10 
 -13   6   5   31.20    7.50 
  12  -6  -5   14.80    3.00 
  11  -6  -5    0.90    2.00 
 -11   6   5    1.60    3.40 
 -10   6   5   19.70    5.10 
   9  -6  -5    8.20    2.10 
  -9   6   5    8.10    5.80 
   8  -6  -5   16.20    3.40 
  -8   6   5   12.50    4.10 
   7  -6  -5    6.80    1.90 
  -7   6   5    9.20    2.90 
   6  -6  -5   12.90    2.60 
  -6   6   5   10.40    3.10 
   5  -6  -5   24.00    3.40 
  -5   6   5   25.50    4.10 
   4  -6  -5  583.14   58.69 
  -4   6   5  575.04   59.19 
   3  -6  -5   11.40    2.30 
  -3   6   5   12.40    3.20 
   2  -6  -5   39.00    4.50 
  -2   6   5   39.00    5.10 
  -2   6   5   38.30    5.50 
   1  -6  -5    6.70    1.30 
  -1   6   5    9.10    2.30 
  -1   6   5    6.20    2.70 
   0   6   5  222.88   23.20 
   0   6   5  217.78   23.70 
   1   6   5  143.99   16.80 
   1   6   5  159.88   16.60 
   2   6   5    8.00    2.90 
   2   6   5    7.50    2.90 
   3   6   5    3.50    3.00 
   3   6   5    1.00    4.00 
   4   6   5    0.60    3.30 
   4   6   5   -2.80    3.00 
  -5  -6  -5   28.30    4.50 
  -5  -6  -5   27.40    5.70 
   5   6   5   33.30    5.90 
  -6  -6  -5   18.70    3.40 
  -6  -6  -5   17.50    5.10 
   6   6   5    8.90    3.80 
  -7  -6  -5   -0.90    4.90 
   7   6   5    5.20    4.20 
  -8  -6  -5    1.60    6.40 
   8   6   5    4.50    5.00 
  -9  -6  -5    0.40    8.30 
   9   6   5    8.80    6.40 
 -14   7   5   46.80   10.00 
 -13   7   5   31.60    8.60 
 -12   7   5   26.80    7.40 
  11  -7  -5   26.80    4.40 
  10  -7  -5    4.00    2.10 
 -10   7   5    8.00    4.00 
   9  -7  -5   -0.10    1.80 
  -9   7   5    2.70    4.10 
   8  -7  -5    0.60    2.00 
  -8   7   5   -0.80    3.80 
   7  -7  -5    8.10    2.00 
  -7   7   5   12.40    3.80 
   6  -7  -5    9.70    2.10 
  -6   7   5   13.50    3.20 
   5  -7  -5   -0.50    1.40 
   5  -7  -5    0.30    1.10 
  -5   7   5    2.10    2.90 
   4  -7  -5    7.80    1.70 
  -4   7   5    7.00    3.30 
   3  -7  -5   20.30    3.00 
  -3   7   5   17.60    4.30 
   2  -7  -5    1.40    1.30 
  -2   7   5    2.80    3.00 
   1  -7  -5    7.20    1.40 
  -1   7   5    9.80    2.60 
  -1   7   5    8.70    3.40 
   0   7   5    0.50    2.50 
   0   7   5   -1.80    2.30 
   1   7   5   -0.60    2.40 
   1   7   5    3.10    2.80 
   2   7   5   -1.50    3.00 
   2   7   5    2.00    3.00 
   3   7   5   13.10    3.70 
   3   7   5   11.50    3.30 
   4   7   5   -1.80    3.20 
   4   7   5   -3.60    3.60 
  -5  -7  -5   35.30    6.20 
  -5  -7  -5   20.90    4.10 
   5   7   5   27.20    6.00 
  -6  -7  -5    0.60    3.00 
  -6  -7  -5    6.90    5.10 
   6   7   5    1.80    4.30 
  -7  -7  -5    0.30    5.70 
   7   7   5   10.00    4.80 
  -8  -7  -5   -3.20    8.10 
   8   7   5    3.10    6.00 
  14  -8  -5    2.30    3.40 
 -14   8   5   12.30    6.40 
 -13   8   5   30.20    8.30 
  12  -8  -5    0.20    2.60 
 -12   8   5    8.80    4.70 
  11  -8  -5    3.50    2.50 
 -11   8   5   12.00    4.50 
  10  -8  -5    0.90    2.10 
 -10   8   5    3.40    3.70 
   9  -8  -5   53.39    6.30 
  -9   8   5   50.89    7.60 
   8  -8  -5   57.79    7.60 
  -8   8   5   60.59    8.60 
   7  -8  -5   16.50    3.30 
  -7   8   5   21.40    5.80 
   6  -8  -5   12.90    3.00 
  -6   8   5   15.70    5.20 
   5  -8  -5   36.80    4.60 
  -5   8   5   33.80    6.50 
   4  -8  -5   12.70    2.70 
  -4   8   5    6.50    2.70 
   3  -8  -5   21.60    3.30 
  -3   8   5   20.70    3.90 
   2  -8  -5    9.80    2.00 
  -2   8   5   11.20    2.90 
   1  -8  -5   -1.70    1.20 
  -1   8   5    2.60    2.60 
   0   8   5    4.70    3.00 
   0   8   5    2.70    2.60 
   1   8   5    3.30    3.00 
   1   8   5   14.20    3.40 
   2   8   5   11.30    4.50 
   2   8   5    8.10    3.50 
   3   8   5   45.90    7.00 
   3   8   5   48.40    7.10 
  -4  -8  -5   16.80    5.30 
  -4  -8  -5   19.40    3.60 
   4   8   5   24.70    5.70 
  -5  -8  -5   18.10    3.90 
  -5  -8  -5   18.60    5.80 
   5   8   5   15.40    4.90 
  -6  -8  -5   10.00    3.70 
  -6  -8  -5    7.50    5.80 
   6   8   5    8.20    5.20 
  -7  -8  -5   -3.40    7.00 
   7   8   5   -3.90    5.40 
  14  -9  -5    1.60    3.40 
 -14   9   5   14.70    6.60 
 -13   9   5    4.00    6.40 
  12  -9  -5   13.50    3.30 
 -12   9   5   20.40    6.40 
  11  -9  -5   11.20    2.90 
 -11   9   5   17.30    5.70 
  10  -9  -5    1.90    2.20 
 -10   9   5    3.70    3.90 
   9  -9  -5    3.00    2.10 
  -9   9   5    6.70    3.30 
   8  -9  -5    0.80    2.20 
  -8   9   5    5.70    3.60 
   7  -9  -5   -1.20    2.10 
  -7   9   5    1.40    3.50 
   6  -9  -5    8.40    1.90 
   6  -9  -5    9.30    2.20 
  -6   9   5   12.00    4.00 
   5  -9  -5   12.50    3.10 
  -5   9   5    9.60    3.40 
   4  -9  -5    3.50    1.80 
  -4   9   5    1.70    2.80 
   3  -9  -5    0.90    1.60 
  -3   9   5   -0.50    2.80 
   2  -9  -5   -1.80    1.50 
  -2   9   5   -0.50    2.80 
  -1   9   5    2.50    3.10 
   0   9   5    3.20    3.30 
   1   9   5   13.70    3.80 
   1   9   5   11.60    5.40 
   2   9   5   14.90    4.60 
   2   9   5   19.00    5.10 
   3   9   5    6.30    3.60 
   3   9   5   -1.10    4.30 
  -4  -9  -5   14.00    3.70 
  -4  -9  -5   15.00    5.70 
   4   9   5   10.60    4.20 
  -5  -9  -5   14.60    3.80 
  -5  -9  -5   13.70    6.00 
   5   9   5    5.00    4.90 
  -6  -9  -5    2.40    4.90 
  -6  -9  -5    3.80    7.90 
   6   9   5    4.00    5.30 
  14 -10  -5    0.70    3.60 
 -14  10   5   16.60    6.30 
  13 -10  -5   16.50    4.20 
 -13  10   5   27.30    7.50 
  12 -10  -5   13.20    3.50 
 -12  10   5   19.50    6.00 
  11 -10  -5   28.40    5.20 
 -11  10   5   30.90    7.20 
  10 -10  -5    4.60    2.50 
 -10  10   5    7.70    4.80 
   9 -10  -5    1.50    2.30 
  -9  10   5    6.90    3.80 
   8 -10  -5    1.90    2.20 
  -8  10   5    0.00    3.60 
   7 -10  -5    5.10    3.00 
  -7  10   5    4.50    3.50 
   6 -10  -5  289.77   28.90 
   6 -10  -5  278.07   28.50 
  -6  10   5  263.57   29.50 
   5 -10  -5   47.60    6.10 
  -5  10   5   45.60    6.60 
   4 -10  -5    1.20    2.00 
  -4  10   5    0.70    3.10 
   3 -10  -5   -0.40    1.80 
  -3  10   5   -0.20    3.00 
   2 -10  -5    0.40    1.80 
  -2  10   5    0.90    3.20 
  -1  10   5   49.10    6.90 
   0  10   5    6.10    3.90 
   1  10   5   20.10    5.40 
   2  10   5    3.80    4.20 
   3  10   5   41.40    7.70 
  -4 -10  -5   -0.30    3.70 
  -4 -10  -5    0.80    5.70 
  -5 -10  -5   10.60    5.20 
  -5 -10  -5   12.70    8.60 
  14 -11  -5   -0.60    4.10 
  13 -11  -5    1.00    3.50 
 -13  11   5   18.60    6.90 
  12 -11  -5   12.70    3.70 
 -12  11   5   21.60    7.20 
  11 -11  -5    7.70    3.10 
 -11  11   5   14.80    5.80 
  10 -11  -5   -3.00    2.60 
 -10  11   5    2.30    5.20 
   9 -11  -5    1.40    2.60 
  -9  11   5    6.20    4.70 
   8 -11  -5    4.40    2.60 
  -8  11   5    7.50    3.60 
   7 -11  -5    7.00    3.20 
  -7  11   5    3.80    3.70 
   6 -11  -5   22.60    4.80 
   6 -11  -5   22.80    5.50 
  -6  11   5   21.70    5.10 
   5 -11  -5    5.30    2.50 
  -5  11   5    7.00    3.80 
   4 -11  -5    6.30    2.30 
  -4  11   5   -0.40    3.40 
   3 -11  -5    0.50    2.00 
  -3  11   5    3.80    3.60 
   2 -11  -5   -0.30    2.00 
  -2  11   5    1.20    3.80 
  -1  11   5    4.20    3.90 
   0  11   5    2.70    4.20 
   1  11   5   10.60    4.90 
   2  11   5    1.20    4.90 
  -3 -11  -5    4.50    6.20 
  -3 -11  -5    7.00    3.90 
  -4 -11  -5    0.80    7.70 
  -4 -11  -5    5.20    4.80 
  13 -12  -5   12.70    4.40 
 -13  12   5   26.80    8.00 
  12 -12  -5    2.70    3.40 
 -12  12   5    7.30    6.90 
  11 -12  -5   -4.70    3.10 
 -11  12   5   -1.00    7.10 
  10 -12  -5    3.50    3.00 
 -10  12   5   -4.00    6.30 
   9 -12  -5    5.50    2.90 
  -9  12   5   12.50    5.40 
   8 -12  -5   -1.60    2.70 
  -8  12   5    4.00    4.40 
   7 -12  -5    6.20    3.00 
  -7  12   5    5.20    4.50 
   6 -12  -5    0.30    4.00 
  -6  12   5    1.30    4.20 
   5 -12  -5    2.70    2.80 
  -5  12   5    2.40    3.90 
   4 -12  -5    2.40    2.40 
  -4  12   5    2.60    4.10 
   3 -12  -5   12.80    2.80 
  -3  12   5   16.50    4.50 
  -2  12   5    9.10    4.60 
  -1  12   5   -4.20    4.40 
   0  12   5    8.40    5.40 
   1  12   5   18.60    6.30 
   2  12   5    3.10    6.40 
  -3 -12  -5   28.00    9.00 
  -3 -12  -5   24.90    6.00 
 -13  13   5    3.90    8.00 
  12 -13  -5    4.40    3.70 
 -12  13   5    9.90    7.00 
  11 -13  -5    1.40    3.50 
 -11  13   5    3.20    7.60 
  10 -13  -5   -2.10    3.20 
 -10  13   5    0.70    6.30 
   9 -13  -5    5.20    3.10 
  -9  13   5   -3.10    6.20 
   8 -13  -5    0.80    3.00 
  -8  13   5    4.50    5.50 
   7 -13  -5   -0.30    3.00 
  -7  13   5   -2.20    4.90 
   6 -13  -5    5.20    3.70 
   6 -13  -5    1.50    5.00 
  -6  13   5    2.90    4.60 
   5 -13  -5    3.60    3.70 
  -5  13   5    8.10    4.70 
   4 -13  -5   -2.80    2.60 
  -4  13   5    1.50    4.70 
  -3  13   5    1.90    5.00 
  -2  13   5   -0.20    5.10 
  -1  13   5    7.60    5.70 
   0  13   5    8.70    6.00 
   1  13   5    5.50    8.20 
  -2 -13  -5   -3.80    7.50 
  -2 -13  -5    0.80    4.70 
  12 -14  -5   12.10    4.40 
 -12  14   5   20.50    9.10 
  11 -14  -5   15.20    4.30 
 -11  14   5   22.30    9.10 
  10 -14  -5   -2.10    3.60 
 -10  14   5    7.00    8.30 
   9 -14  -5   -0.30    3.40 
  -9  14   5    5.30    7.10 
   8 -14  -5   -4.30    3.40 
  -8  14   5   -2.80    6.50 
   7 -14  -5   44.40    6.60 
  -7  14   5   28.60    7.50 
   6 -14  -5   -1.40    3.40 
  -6  14   5    3.80    5.60 
   5 -14  -5    0.30    4.80 
  -5  14   5    1.60    5.70 
   4 -14  -5    2.20    5.30 
  -4  14   5    4.40    5.60 
  -3  14   5    6.50    5.90 
  -2  14   5    2.10    5.90 
  -1  14   5   27.70    8.90 
   0  14   5    9.40    7.30 
  -1 -14  -5   14.80    8.70 
 -11  15   5   21.80   10.10 
  10 -15  -5   -3.50    4.00 
 -10  15   5    7.20    9.20 
   9 -15  -5   -0.20    3.80 
  -9  15   5   -3.00    8.10 
   8 -15  -5   -1.30    3.70 
  -8  15   5    4.30    8.10 
   7 -15  -5    1.20    3.70 
  -7  15   5    5.00    7.60 
   6 -15  -5    5.80    3.80 
  -6  15   5   -1.70    6.50 
   5 -15  -5    5.80    6.10 
  -5  15   5   -1.80    6.80 
  -4  15   5   -0.20    6.80 
  -3  15   5   -4.70    7.40 
  -2  15   5   -1.40    7.10 
  -1  15   5    3.10    7.10 
  -9  16   5   -7.60   10.10 
   8 -16  -5   -0.70    4.20 
  -8  16   5    8.70   11.10 
   7 -16  -5   -0.30    4.30 
  -7  16   5    1.40   10.70 
  -6  16   5    3.70    9.60 
  -5  16   5   19.40    9.50 
  -4  16   5   22.60    8.80 
   0 -16   6    3.70    7.20 
   1 -16   6   -1.20    6.00 
   2 -16   6    2.90    5.60 
   2 -16   6    2.40    6.00 
   3 -16   6   -1.40    5.40 
   3 -16   6   -3.70    5.10 
   4 -16   6   -7.00    5.20 
   5 -16   6   -0.40    4.70 
   5 -16   6   -3.80    5.70 
   6 -16   6    2.00    4.80 
   7 -16   6    0.00    4.90 
   7 -16   6    3.10    4.30 
   8 -16   6   -3.20    4.40 
   8 -16   6   -2.10    5.20 
  -2 -15   6    5.30    6.40 
  -1 -15   6   -5.70    6.30 
   0 -15   6    2.80    5.60 
   1 -15   6    3.40    5.00 
   2 -15   6    5.00    5.10 
   2 -15   6   -2.90    4.70 
   3 -15   6    0.90    4.60 
   3 -15   6   -0.10    4.70 
   4 -15   6   -2.10    4.60 
   4 -15   6    1.80    4.40 
   5 -15   6    1.80    4.60 
   5 -15   6    1.70    4.20 
   6 -15   6    0.20    4.10 
   7 -15   6    5.90    4.00 
   7 -15   6   -3.90    4.40 
   8 -15   6   -2.10    3.90 
   8 -15   6   -0.10    4.40 
   9 -15   6   -1.80    4.00 
   9 -15   6   -3.10    4.60 
  -3 -14   6    2.90    6.40 
  -2 -14   6    0.70    5.60 
  -1 -14   6    0.00    5.00 
   0 -14   6   -1.60    4.60 
   1 -14   6    4.70    4.40 
   2 -14   6    9.70    4.50 
   2 -14   6   11.10    4.30 
   3 -14   6    0.00    4.00 
   3 -14   6    2.40    3.90 
   4 -14   6   -2.90    3.80 
   4 -14   6   -1.20    3.90 
   5 -14   6    0.80    4.40 
   5 -14   6    1.30    3.60 
   6 -14   6   31.60    6.50 
   7 -14   6   15.90    4.70 
   8 -14   6    4.60    3.60 
   8 -14   6    3.70    4.10 
   9 -14   6    0.10    4.00 
  10 -14   6    8.80    4.50 
  10 -14   6   -4.00    4.50 
  -5 -13   6   -7.80    5.80 
  -4 -13   6   -1.60    5.80 
  -3 -13   6    1.10    4.90 
  -2 -13   6    3.20    4.60 
  -1 -13   6   10.00    4.40 
   0 -13   6    5.70    4.10 
   1 -13   6   -1.30    3.70 
   2 -13   6    4.30    3.60 
   2 -13   6    2.50    4.00 
   3 -13   6    2.60    3.60 
   3 -13   6    1.90    3.60 
   4 -13   6   -1.90    4.00 
   4 -13   6   -1.50    3.30 
   5 -13   6    1.80    3.20 
   5 -13   6    0.60    4.70 
   6 -13   6    3.90    3.30 
   6 -13   6    2.70    4.00 
   7 -13   6    0.90    3.60 
   8 -13   6   -3.40    3.50 
   8 -13   6   -1.80    3.20 
   9 -13   6   -0.50    3.80 
  10 -13   6   -4.50    4.20 
  10 -13   6    8.80    3.90 
  11 -13   6    7.00    4.40 
  -6 -12   6    1.30    5.70 
  -5 -12   6   10.20    6.30 
  -4 -12   6   -0.60    4.50 
  -3 -12   6    1.70    3.90 
  -2 -12   6   14.00    4.70 
  -1 -12   6    3.80    3.60 
   0 -12   6   -0.70    3.40 
   1 -12   6   -0.60    3.20 
   2 -12   6    3.40    3.60 
   2 -12   6    0.40    3.20 
   3 -12   6    0.50    4.30 
   3 -12   6   -1.60    3.20 
   4 -12   6    7.60    3.10 
   4 -12   6    0.00    3.80 
   5 -12   6   -0.30    2.90 
   5 -12   6    2.90    3.10 
   6 -12   6    2.40    3.40 
   6 -12   6    3.00    2.90 
   7 -12   6   -4.20    3.20 
   8 -12   6   18.60    3.70 
   8 -12   6   17.90    4.30 
   9 -12   6   -1.90    3.20 
  10 -12   6   -0.10    3.50 
  11 -12   6    6.40    4.30 
  12 -12   6    2.60    4.50 
  -7 -11   6    1.90    5.70 
  -6 -11   6    1.90    5.80 
  -4 -11   6    5.30    3.90 
  -3 -11   6    6.00    3.70 
  -1 -11   6    0.00    3.20 
   0 -11   6   -1.80    3.00 
   1 -11   6    8.40    3.40 
   2 -11   6    0.30    3.20 
   2 -11   6   -1.20    5.00 
   3 -11   6    3.40    3.50 
   3 -11   6    2.20    3.20 
   4 -11   6    0.90    3.50 
   5 -11   6    2.90    2.60 
   5 -11   6    5.80    3.90 
   6 -11   6   10.60    2.90 
   6 -11   6   11.30    3.90 
   7 -11   6   14.50    4.10 
   8 -11   6    4.70    2.80 
   8 -11   6    1.60    3.30 
   9 -11   6   -0.80    3.00 
  10 -11   6    2.80    3.30 
  11 -11   6    6.20    4.00 
  12 -11   6   -1.80    4.10 
  -8 -10   6   20.90    6.40 
  -7 -10   6    3.20    6.10 
  -6 -10   6   11.80    4.70 
  -5 -10   6    6.50    3.80 
  -4 -10   6    1.50    3.50 
  -3 -10   6   -2.60    3.20 
  -2 -10   6    0.70    3.00 
  -1 -10   6    9.50    3.10 
   0 -10   6   76.69    9.20 
   1 -10   6    1.90    3.90 
   2 -10   6    1.20    2.90 
   2 -10   6    0.50    2.80 
   3 -10   6    9.80    3.00 
   3 -10   6    7.20    3.10 
   4 -10   6    2.30    2.70 
   4 -10   6   -0.90    2.30 
   5 -10   6    2.00    3.10 
   5 -10   6   -0.30    2.20 
   6 -10   6    7.60    4.00 
   7 -10   6    2.20    4.10 
   8 -10   6    6.00    2.60 
   8 -10   6    8.30    3.60 
   9 -10   6   10.20    3.10 
   9 -10   6    6.10    3.90 
  10 -10   6   24.00    6.70 
  11 -10   6   34.10    6.10 
  11 -10   6    9.10    6.00 
  12 -10   6    2.50    4.10 
  -9  -9   6   -2.40    5.50 
  -8  -9   6    0.10    5.40 
  -7  -9   6    8.00    4.40 
  -6  -9   6    3.20    3.60 
  -5  -9   6    5.30    3.30 
  -4  -9   6    4.00    3.00 
  -3  -9   6   23.40    4.20 
  -2  -9   6    2.10    2.70 
  -1  -9   6    0.80    2.70 
   0  -9   6   -0.20    3.20 
   1  -9   6   -1.00    2.50 
   1  -9   6   -2.10    2.50 
   2  -9   6   -0.40    2.30 
   2  -9   6   -1.60    2.20 
   3  -9   6    1.00    2.30 
   3  -9   6   -0.10    2.30 
   4  -9   6    0.10    2.00 
   4  -9   6    2.30    2.20 
   5  -9   6    7.70    2.20 
   5  -9   6   11.20    3.00 
   5  -9   6   10.10    2.70 
   6  -9   6    2.60    2.70 
   7  -9   6   -3.50    3.60 
   8  -9   6    1.80    3.60 
   8  -9   6    4.00    2.50 
   9  -9   6   -1.50    3.80 
   9  -9   6    3.10    2.80 
  10  -9   6   15.70    3.40 
  10  -9   6   -2.60    4.60 
  11  -9   6    5.20    3.50 
  12  -9   6   -0.50    4.10 
  -9  -8   6    1.50    5.50 
  -8  -8   6   -1.70    4.30 
  -7  -8   6   17.30    4.40 
  -6  -8   6    5.40    3.20 
  -5  -8   6    1.50    2.70 
  -4  -8   6   82.89    9.60 
  -3  -8   6  112.29   12.50 
  -2  -8   6   -1.40    2.30 
  -1  -8   6    3.20    3.20 
   0  -8   6    8.50    2.60 
   1  -8   6   14.90    3.50 
   1  -8   6   12.90    3.10 
   2  -8   6   44.00    5.40 
   2  -8   6   42.40    5.90 
   3  -8   6   35.20    4.40 
   3  -8   6   33.80    5.00 
   4  -8   6    2.80    1.50 
   4  -8   6    4.30    2.00 
   5  -8   6    6.40    2.40 
   6  -8   6   11.80    3.20 
   7  -8   6   11.40    3.80 
   8  -8   6    3.10    2.40 
   8  -8   6    1.70    4.40 
   9  -8   6   26.30    4.90 
   9  -8   6   18.70    5.80 
  10  -8   6   64.59    8.60 
  11  -8   6    3.90    3.60 
  12  -8   6   -1.60    4.00 
  12  -8   6   -0.80    4.80 
 -10  -7   6    8.90    5.70 
  -8  -7   6    0.20    3.70 
  -7  -7   6   10.60    3.50 
  -6  -7   6   15.40    3.80 
  -5  -7   6   -1.60    2.50 
  -4  -7   6   26.00    3.90 
  -3  -7   6    8.80    2.50 
  -2  -7   6    0.70    2.70 
  -1  -7   6    2.10    2.10 
   0  -7   6    0.70    1.90 
   1  -7   6   -0.10    2.10 
   1  -7   6    0.00    1.70 
   2  -7   6    6.30    1.90 
   2  -7   6    4.20    2.00 
   3  -7   6   12.50    2.70 
   3  -7   6   19.20    2.60 
   3  -7   6   17.80    3.40 
   4  -7   6    7.30    2.50 
   5  -7   6   22.80    4.00 
   6  -7   6   18.80    4.00 
   7  -7   6    2.10    3.10 
   8  -7   6   -1.10    4.90 
   8  -7   6    4.30    2.70 
   9  -7   6    4.00    2.70 
  10  -7   6   -4.60    4.00 
  10  -7   6   -2.70    3.10 
  11  -7   6    2.10    3.40 
  11  -7   6   -2.40    4.10 
  12  -7   6    6.30    4.40 
  12  -7   6    1.70    4.20 
 -11  -6   6    1.90    5.70 
 -10  -6   6   -2.50    4.70 
  -9  -6   6   -2.90    3.60 
  -8  -6   6   -0.20    3.10 
  -7  -6   6    6.10    2.90 
  -6  -6   6   -1.40    2.40 
  -5  -6   6   16.50    3.30 
  -4  -6   6    5.80    2.10 
  -3  -6   6   19.70    3.90 
  -2  -6   6   26.80    3.90 
  -1  -6   6   34.50    4.40 
   0  -6   6   17.40    2.80 
   0  -6   6   18.10    3.40 
   1  -6   6    2.00    1.50 
   1  -6   6    4.00    1.80 
   2  -6   6   18.50    2.70 
   2  -6   6   21.60    3.40 
   2  -6   6   20.10    3.30 
   3  -6   6    9.00    2.60 
   3  -6   6    8.30    2.00 
   3  -6   6   10.10    1.70 
   4  -6   6   55.29    6.80 
   5  -6   6  245.88   25.90 
   6  -6   6   18.90    3.80 
   7  -6   6    1.70    3.40 
   8  -6   6    3.60    5.10 
   8  -6   6   -1.10    4.00 
   9  -6   6  248.68   28.00 
   9  -6   6  269.07   27.60 
  10  -6   6   14.10    3.60 
  10  -6   6   13.50    4.60 
  11  -6   6    1.80    4.20 
  11  -6   6    1.60    3.40 
 -11  -5   6   12.20    6.80 
 -10  -5   6   -0.20    3.60 
  -9  -5   6    0.00    3.40 
  -8  -5   6    3.00    3.00 
  -7  -5   6    2.20    2.40 
  -6  -5   6   32.00    4.50 
  -5  -5   6    9.80    2.70 
  -4  -5   6   12.30    3.10 
  -3  -5   6   10.40    2.60 
  -2  -5   6   16.50    2.80 
  -1  -5   6   32.20    4.00 
   0  -5   6   35.00    4.20 
   0  -5   6   34.80    4.70 
  -1   5  -6   16.70    3.80 
  -1   5  -6   17.20    3.00 
   1  -5   6   23.40    2.90 
   1  -5   6   28.90    3.70 
  -2   5  -6    1.10    1.70 
  -2   5  -6    0.70    1.10 
   2  -5   6    0.90    1.50 
   2  -5   6    0.30    1.20 
   3  -5   6   44.10    5.60 
   4  -5   6    5.40    2.00 
   5  -5   6   36.00    5.10 
   6  -5   6   65.49    8.40 
   7  -5   6    9.20    4.20 
   7  -5   6    5.00    2.30 
   8  -5   6    8.70    5.70 
   8  -5   6    6.10    3.10 
   9  -5   6    2.00    3.50 
   9  -5   6    0.50    3.80 
  10  -5   6    6.40    3.80 
  10  -5   6    7.00    3.20 
  11  -5   6   28.00    6.50 
  11  -5   6    6.80    4.00 
 -12  -4   6   -8.00    6.40 
 -11  -4   6    8.80    5.00 
 -10  -4   6   -0.30    3.50 
  -9  -4   6   20.30    4.40 
  -8  -4   6    1.30    2.50 
  -7  -4   6    2.80    2.30 
  -6  -4   6   10.00    2.60 
  -5  -4   6   11.40    2.40 
  -4  -4   6  489.45   50.09 
  -3  -4   6    9.10    2.20 
  -2  -4   6   -0.80    1.40 
  -1  -4   6   10.10    2.00 
   0  -4   6    8.80    2.60 
   0  -4   6   13.10    2.00 
  -1   4  -6  167.28   16.90 
   1  -4   6  158.08   16.90 
   1  -4   6  167.78   17.50 
  -2   4  -6   22.60    2.90 
   2  -4   6   23.00    3.60 
   2  -4   6   23.30    3.00 
   3  -4   6   13.40    2.80 
   4  -4   6   71.69    8.30 
   5  -4   6   80.39    9.50 
   6  -4   6   57.19    8.10 
   7  -4   6   80.29    9.10 
   7  -4   6   75.79   10.80 
   8  -4   6   -1.60    4.40 
   8  -4   6    0.00    2.30 
   9  -4   6    5.00    3.90 
   9  -4   6    3.80    4.30 
  10  -4   6    2.00    3.40 
  10  -4   6    2.20    3.60 
  11  -4   6   44.90    8.70 
 -12  -3   6    0.00    5.60 
 -11  -3   6    7.40    4.80 
 -10  -3   6    1.40    3.40 
  -9  -3   6   12.80    3.50 
  -8  -3   6    2.30    2.30 
  -7  -3   6    2.60    2.00 
  -6  -3   6    5.60    2.00 
  -5  -3   6    1.20    2.30 
  -4  -3   6  100.09   10.90 
  -3  -3   6   51.39    5.90 
  -2  -3   6   23.60    3.20 
  -1  -3   6    1.30    1.30 
  -1  -3   6    0.30    1.50 
   0   3  -6    6.10    1.80 
   0  -3   6   10.10    2.00 
   0  -3   6    9.30    2.20 
  -1   3  -6   16.90    2.30 
   1  -3   6   19.30    2.60 
   1  -3   6   14.70    2.80 
  -2   3  -6    0.10    0.90 
   2  -3   6   -0.20    1.20 
   2  -3   6    1.60    1.30 
   3  -3   6    1.10    1.50 
   4  -3   6    4.30    2.20 
   5  -3   6   59.59    7.90 
   6  -3   6    6.30    4.00 
   7  -3   6    4.40    4.70 
   7  -3   6    1.10    2.00 
   8  -3   6    4.40    2.60 
   8  -3   6   12.80    4.30 
   9  -3   6   10.80    3.80 
   9  -3   6   11.20    3.60 
  10  -3   6   33.90    7.50 
 -13  -2   6   14.10    9.40 
 -12  -2   6   -1.80    5.20 
 -10  -2   6   18.00    4.40 
  -9  -2   6   15.00    3.70 
  -8  -2   6   14.20    3.20 
  -7  -2   6    3.30    1.90 
  -6  -2   6    7.30    3.30 
  -5  -2   6   12.90    2.80 
  -4  -2   6   45.10    5.40 
  -3  -2   6  114.39   12.10 
  -2  -2   6 1063.29  107.19 
  -1  -2   6   49.60    6.20 
  -1  -2   6   54.79    6.00 
   0   2  -6  148.79   16.30 
   0  -2   6  165.18   16.50 
   0  -2   6  163.98   16.90 
  -1   2  -6    0.80    1.10 
   1  -2   6    0.10    1.20 
   1  -2   6    1.20    1.30 
  -2   2  -6  105.79   10.70 
   2  -2   6  103.39   11.30 
   2  -2   6  103.59   10.90 
  -3   2  -6  380.46   38.80 
   3  -2   6  384.46   39.40 
   3  -2   6  387.56   38.90 
  -4   2  -6   88.59    9.40 
   4  -2   6   78.69    9.30 
   4  -2   6  100.89   10.60 
  -5   2  -6   46.80    5.50 
  -5   2  -6   40.50    5.30 
   5  -2   6   50.59    7.30 
  -6   2  -6    3.20    3.00 
  -6   2  -6    1.10    2.20 
   6  -2   6    0.00    3.90 
   6  -2   6   -1.60    1.80 
  -7   2  -6   -0.80    2.30 
   7  -2   6   -1.70    4.70 
   7  -2   6   -1.10    2.20 
  -8   2  -6   20.70    4.50 
   8  -2   6   24.50    5.10 
   8  -2   6   24.80    5.00 
  -9   2  -6   20.40    4.40 
   9  -2   6   27.50    5.30 
  10  -2   6   43.30    8.30 
 -13  -1   6    0.30    7.40 
 -12  -1   6    3.60    5.10 
 -11  -1   6   -2.20    3.80 
 -10  -1   6   -1.30    3.20 
  -9  -1   6    2.20    2.50 
  -8  -1   6   24.80    3.90 
  -7  -1   6   23.20    3.60 
  -6  -1   6    4.00    2.60 
  -5  -1   6  110.19   12.00 
  -4  -1   6   10.60    2.50 
  -3  -1   6   41.60    5.10 
  -2  -1   6   49.90    5.70 
  -2  -1   6   45.90    5.70 
  -1  -1   6    0.90    1.70 
  -1  -1   6    1.00    1.20 
   0   1  -6   19.20    2.70 
   0  -1   6   21.80    3.10 
   0  -1   6   16.50    2.90 
  -1   1  -6  132.39   13.80 
   1  -1   6  131.29   14.10 
   1  -1   6  136.79   13.90 
  -2   1  -6    1.10    1.30 
   2  -1   6    0.70    1.60 
   2  -1   6    3.90    1.90 
  -3   1  -6   22.00    3.30 
   3  -1   6   21.00    3.20 
   3  -1   6   27.40    4.60 
  -4   1  -6    1.20    2.20 
   4  -1   6    1.80    1.80 
   4  -1   6    3.00    2.90 
  -5   1  -6   22.40    2.90 
  -5   1  -6   19.70    3.60 
   5  -1   6   25.30    5.90 
  -6   1  -6   12.00    3.30 
   6  -1   6   11.30    2.60 
   6  -1   6   10.20    4.60 
  -7   1  -6    4.70    2.80 
   7  -1   6    6.30    2.40 
   7  -1   6    0.40    3.20 
  -8   1  -6   20.20    4.80 
   8  -1   6   21.60    4.60 
  -9   1  -6    8.20    4.30 
   9  -1   6   11.30    4.60 
   9  -1   6    4.50    3.30 
  11  -1   6   39.50   10.00 
  12  -1   6   85.29   13.90 
 -12   0   6   13.40    5.40 
 -11   0   6    3.40    4.30 
 -10   0   6   11.20    3.90 
   9   0  -6   35.80    5.30 
  -9   0   6   32.30    5.10 
   8   0  -6   15.80    3.10 
  -8   0   6   22.10    4.00 
   7   0  -6   12.80    2.70 
  -7   0   6   19.50    4.60 
  -6   0   6   22.50    4.10 
  -5   0   6  147.29   15.70 
  -4   0   6  177.98   18.60 
  -3   0   6   58.59    6.90 
  -3   0   6   63.19    7.00 
  -2   0   6   14.50    2.30 
  -2   0   6   13.50    3.00 
  -1   0   6   19.90    3.10 
  -1   0   6   19.90    3.00 
   0   0  -6  228.08   25.80 
   0   0   6  263.67   25.90 
   0   0   6  266.07   26.00 
  -1   0  -6  573.64   60.79 
   1   0   6  639.74   60.99 
   1   0   6  591.74   60.99 
  -2   0  -6   18.20    3.10 
   2   0   6   17.40    3.00 
   2   0   6   25.90    4.30 
   3   0   6    0.80    1.80 
   3   0   6    3.90    2.70 
   4   0   6   33.20    5.90 
   4   0   6   34.80    4.50 
  -5   0  -6   96.29    9.90 
  -5   0  -6   95.59   10.50 
   5   0   6   95.09   10.40 
   5   0   6   89.79   11.30 
  -6   0  -6   14.70    3.30 
   6   0   6   11.60    2.60 
   6   0   6    7.60    4.70 
  -7   0  -6   18.80    4.10 
   7   0   6   18.00    4.20 
   7   0   6   11.60    3.60 
  -8   0  -6    7.00    4.10 
   8   0   6    6.00    2.80 
   8   0   6    8.50    4.40 
  -9   0  -6    8.30    6.20 
   9   0   6    5.70    2.90 
 -10   0  -6   32.40    6.60 
  10   0   6   28.70    6.20 
  11   0   6   48.80   11.00 
 -14   1   6  -10.90    8.20 
 -13   1   6    6.30    6.80 
  12  -1  -6    1.60    2.60 
  11  -1  -6    8.50    2.40 
 -11   1   6    1.40    3.90 
  10  -1  -6   31.20    4.40 
 -10   1   6   18.60    5.10 
   9  -1  -6   73.19    8.60 
  -9   1   6   71.99    8.90 
   8  -1  -6   22.10    3.50 
  -8   1   6   22.10    5.00 
   7  -1  -6   36.70    4.80 
  -7   1   6   39.70    6.10 
   6  -1  -6   10.20    2.20 
  -6   1   6   12.40    3.40 
   5  -1  -6   36.90    4.10 
  -5   1   6   31.50    4.90 
  -4   1   6   81.79    8.90 
  -4   1   6   77.29    8.60 
  -3   1   6    0.60    1.20 
  -3   1   6   -0.10    1.50 
  -2   1   6   -1.70    1.50 
  -2   1   6    0.50    1.00 
  -1   1   6  120.29   12.70 
  -1   1   6  117.59   12.50 
   0   1   6    9.10    2.20 
   1   1   6    2.90    1.80 
   1   1   6    4.10    2.40 
   2   1   6    6.40    2.80 
   2   1   6    7.80    2.20 
   3   1   6   13.50    4.00 
   3   1   6   16.50    3.10 
   4   1   6    0.10    2.80 
   4   1   6    1.00    1.70 
   4   1   6    1.30    2.30 
   5   1   6    0.20    2.00 
  -6  -1  -6    1.70    1.80 
  -6  -1  -6   -0.10    2.90 
   6   1   6    1.20    2.10 
  -7  -1  -6   24.20    5.60 
   7   1   6   27.20    5.00 
   7   1   6   37.30    6.10 
  -8  -1  -6   -3.20    6.10 
   8   1   6    0.70    2.30 
   8   1   6    8.70    4.70 
  -9  -1  -6    2.00    4.90 
   9   1   6    8.10    4.90 
 -10  -1  -6   27.90    7.00 
  11   1   6   15.10    7.40 
  14  -2  -6   -2.30    4.00 
 -14   2   6   -6.60    7.50 
  13  -2  -6    0.40    3.00 
 -13   2   6   -5.10    5.90 
  12  -2  -6    3.40    2.40 
 -12   2   6    3.60    5.20 
  11  -2  -6   16.20    3.60 
 -11   2   6   18.50    4.80 
  10  -2  -6  107.99   11.70 
 -10   2   6  102.89   12.10 
   9  -2  -6   21.80    4.20 
  -9   2   6   17.40    4.70 
   8  -2  -6   47.20    5.50 
  -8   2   6   37.50    6.90 
   7  -2  -6  203.38   20.40 
  -7   2   6  187.48   20.70 
   6  -2  -6   10.60    2.20 
  -6   2   6    8.80    2.90 
   5  -2  -6    4.60    1.20 
  -5   2   6    5.00    2.50 
   4  -2  -6  103.49   10.90 
  -4   2   6  108.59   11.40 
  -4   2   6  100.79   10.80 
   3  -2  -6 1129.29  114.39 
  -3   2   6 1156.48  114.69 
  -3   2   6 1120.69  114.19 
  -2   2   6    5.20    1.70 
  -2   2   6    3.30    1.80 
  -1   2   6   10.90    2.90 
  -1   2   6    6.50    2.10 
   0   2   6    1.20    2.10 
   0   2   6   -1.10    1.60 
   1   2   6  194.38   20.70 
   1   2   6  199.08   20.70 
   2   2   6  117.39   12.90 
   2   2   6  118.99   13.10 
   3   2   6  211.48   22.10 
   3   2   6  201.58   21.70 
   4   2   6   12.20    3.10 
   4   2   6    6.30    3.70 
   5   2   6   80.69   11.20 
   5   2   6   88.89    9.20 
  -6  -2  -6   15.60    3.10 
  -6  -2  -6   17.50    4.80 
   6   2   6   13.20    3.30 
   6   2   6   12.70    3.70 
  -7  -2  -6   33.60    7.10 
   7   2   6   21.10    4.10 
   7   2   6   44.50    6.50 
  -8  -2  -6    5.70    4.30 
   8   2   6   -0.30    4.20 
  -9  -2  -6    3.90    5.50 
   9   2   6   35.30    8.30 
  10   2   6   32.40    8.70 
  14  -3  -6    6.20    3.50 
 -14   3   6    5.80    7.40 
  13  -3  -6    1.40    2.70 
 -13   3   6   -5.90    5.80 
  12  -3  -6    5.50    2.50 
 -12   3   6    3.50    4.50 
  11  -3  -6   -0.50    2.00 
 -11   3   6    2.70    3.60 
  10  -3  -6  172.38   18.40 
 -10   3   6  176.18   18.90 
   9  -3  -6   50.49    6.80 
  -9   3   6   50.09    7.20 
   8  -3  -6   66.99    7.60 
  -8   3   6   63.99    8.90 
   7  -3  -6    0.00    1.40 
  -7   3   6   -1.40    2.50 
   6  -3  -6    6.90    1.70 
  -6   3   6    7.60    1.50 
  -6   3   6    9.10    2.70 
   5  -3  -6   12.10    2.20 
  -5   3   6   10.00    2.70 
   4  -3  -6   14.20    2.20 
  -4   3   6   13.10    3.10 
   3  -3  -6    0.90    1.00 
   3  -3  -6    0.40    1.00 
  -3   3   6    0.10    1.60 
  -3   3   6    0.20    1.40 
  -2   3   6    0.30    1.70 
  -2   3   6   -0.70    1.50 
  -1   3   6   13.70    2.90 
  -1   3   6   12.50    3.00 
   0   3   6   13.70    3.00 
   0   3   6   11.60    2.40 
   1   3   6    5.40    2.60 
   1   3   6    5.30    2.30 
   2   3   6    0.60    2.20 
   3   3   6   -3.30    3.20 
   3   3   6    1.80    2.40 
   4   3   6    7.90    3.20 
  -6  -3  -6    8.30    4.00 
  -6  -3  -6    5.70    2.50 
   6   3   6    9.00    3.60 
  -7  -3  -6    4.50    4.00 
   7   3   6    4.90    4.10 
  -8  -3  -6    1.00    4.60 
   8   3   6    4.30    4.70 
  -9  -3  -6    3.90    6.00 
   9   3   6    3.50    4.80 
 -10  -3  -6    2.50    6.80 
  10   3   6   38.50    8.70 
  14  -4  -6   -1.10    3.40 
 -14   4   6   15.20    7.50 
  13  -4  -6    6.00    2.90 
 -13   4   6   10.00    6.20 
  12  -4  -6   16.10    3.40 
 -12   4   6   23.80    6.30 
  11  -4  -6   10.10    2.50 
 -11   4   6   17.10    4.70 
  10  -4  -6   39.10    5.00 
 -10   4   6   39.50    6.10 
   9  -4  -6   20.30    4.00 
  -9   4   6   17.00    4.80 
   8  -4  -6    5.90    1.90 
  -8   4   6    8.80    4.10 
   7  -4  -6   20.00    2.90 
  -7   4   6   13.60    3.70 
   6  -4  -6    0.20    1.20 
  -6   4   6    2.10    2.20 
   5  -4  -6   68.79    7.50 
  -5   4   6   68.99    8.10 
   4  -4  -6    1.30    1.10 
  -4   4   6    1.30    1.90 
   3  -4  -6    1.90    1.10 
  -3   4   6    0.80    1.40 
  -3   4   6   -0.30    2.10 
   2  -4  -6    1.50    1.00 
  -2   4   6    0.80    1.70 
  -2   4   6    0.40    1.80 
  -1   4   6  222.08   23.40 
  -1   4   6  223.18   23.10 
   0   4   6  109.39   12.00 
   0   4   6  104.69   11.80 
   1   4   6    0.30    2.30 
   2   4   6   48.50    5.90 
   2   4   6   38.80    6.50 
   3   4   6   13.80    4.10 
   3   4   6   18.30    4.90 
   4   4   6   37.20    6.00 
   4   4   6   25.50    7.70 
  -5  -4  -6   76.79   10.00 
   5   4   6   81.19   10.00 
  -6  -4  -6   11.20    4.10 
  -6  -4  -6    5.80    2.50 
   6   4   6    9.50    4.30 
  -7  -4  -6    7.40    4.90 
   7   4   6    9.20    4.00 
  -8  -4  -6    7.20    5.40 
   8   4   6   13.40    5.10 
  -9  -4  -6    2.70    7.00 
   9   4   6   30.70    8.50 
  14  -5  -6   -2.90    3.20 
 -14   5   6    9.20    7.10 
  13  -5  -6   -3.70    2.70 
 -13   5   6    9.50    5.40 
  12  -5  -6    1.30    2.40 
 -12   5   6    9.00    4.70 
  11  -5  -6   41.20    5.70 
 -11   5   6   49.80    6.80 
  10  -5  -6   68.29    7.70 
 -10   5   6   67.39    8.50 
   9  -5  -6   29.60    4.60 
  -9   5   6   29.30    5.30 
   8  -5  -6   36.50    4.60 
  -8   5   6   28.50    6.50 
   7  -5  -6    0.00    1.40 
  -7   5   6   -3.20    2.50 
   6  -5  -6    2.90    1.30 
  -6   5   6    2.10    2.60 
   5  -5  -6    8.40    1.70 
  -5   5   6    6.70    2.70 
   4  -5  -6   18.50    3.20 
   4  -5  -6   37.50    3.80 
  -4   5   6   31.60    4.60 
   3  -5  -6   48.40    5.10 
  -3   5   6   41.30    5.80 
  -3   5   6   44.30    5.30 
   2  -5  -6    1.00    1.10 
  -2   5   6   -1.50    1.60 
  -2   5   6   -1.50    2.10 
  -1   5   6   16.60    3.20 
  -1   5   6   11.90    3.00 
   0   5   6    4.20    2.70 
   0   5   6    6.60    2.90 
   1   5   6   -1.50    2.80 
   2   5   6   20.60    4.50 
   2   5   6   15.50    4.90 
   3   5   6   -3.90    3.80 
   3   5   6   -1.90    3.10 
   4   5   6    7.50    3.50 
   4   5   6   12.10    3.50 
  -5  -5  -6   19.50    3.30 
  -5  -5  -6   23.40    5.40 
   5   5   6   19.20    5.20 
  -6  -5  -6   12.00    3.00 
  -6  -5  -6    6.90    4.40 
   6   5   6    9.30    4.00 
  -7  -5  -6    1.60    5.20 
   7   5   6    4.00    4.50 
  -8  -5  -6   12.60    6.70 
   8   5   6    6.60    5.30 
  -9  -5  -6    6.20    8.00 
   9   5   6   15.10    6.00 
  14  -6  -6    2.00    3.20 
 -14   6   6    8.80    6.50 
  13  -6  -6    0.40    2.70 
 -13   6   6   12.30    5.50 
  12  -6  -6    0.20    2.40 
 -12   6   6   12.60    4.50 
  11  -6  -6   22.50    4.00 
 -11   6   6   27.50    5.60 
  10  -6  -6  105.79   11.60 
 -10   6   6  107.29   12.30 
   9  -6  -6   42.20    5.20 
  -9   6   6   40.00    6.40 
   8  -6  -6   33.00    4.70 
  -8   6   6   27.40    6.50 
   7  -6  -6    7.00    2.00 
  -7   6   6   10.60    4.00 
   6  -6  -6  120.19   12.20 
  -6   6   6  106.69   12.90 
   5  -6  -6  182.88   18.70 
  -5   6   6  175.68   19.30 
   4  -6  -6   46.30    5.40 
  -4   6   6   46.30    6.40 
   3  -6  -6   26.40    3.50 
  -3   6   6   26.30    4.60 
  -3   6   6   27.30    4.10 
   2  -6  -6    9.80    2.10 
  -2   6   6    8.90    2.30 
  -2   6   6    8.70    3.00 
  -1   6   6   36.00    4.90 
  -1   6   6   35.50    5.70 
   0   6   6    1.20    2.40 
   0   6   6    6.60    3.20 
   1   6   6   65.89    8.20 
   1   6   6   64.79    8.30 
   2   6   6   40.10    5.80 
   2   6   6   31.90    6.00 
   3   6   6   -1.30    3.80 
   3   6   6    1.00    3.10 
   4   6   6   62.69    8.30 
   4   6   6   65.09    8.20 
  -5  -6  -6  123.19   14.20 
  -5  -6  -6  111.59   12.80 
   5   6   6  118.29   13.60 
  -6  -6  -6   21.20    3.80 
  -6  -6  -6   26.60    6.50 
   6   6   6   16.70    4.70 
  -7  -6  -6    0.60    5.80 
   7   6   6   -2.60    4.20 
  -8  -6  -6    8.30    7.70 
   8   6   6    2.70    5.60 
  14  -7  -6   -1.30    3.10 
 -13   7   6   16.90    6.50 
  12  -7  -6    4.70    2.50 
 -12   7   6    8.50    5.20 
  11  -7  -6   38.00    5.40 
 -11   7   6   46.40    7.50 
  10  -7  -6   28.50    4.30 
 -10   7   6   33.00    5.60 
   9  -7  -6    3.90    1.80 
  -9   7   6    2.20    3.30 
   8  -7  -6    2.60    2.20 
  -8   7   6    1.60    3.20 
   7  -7  -6    4.70    1.90 
  -7   7   6   10.00    4.10 
   6  -7  -6    1.80    1.70 
  -6   7   6    0.70    3.70 
   5  -7  -6    2.80    1.50 
  -5   7   6    0.80    3.30 
   4  -7  -6    6.70    1.80 
  -4   7   6    9.20    4.10 
   3  -7  -6   22.50    3.10 
  -3   7   6   15.70    3.90 
   2  -7  -6    0.30    1.30 
  -2   7   6    3.80    2.50 
  -2   7   6   -0.80    2.30 
   1  -7  -6    8.50    1.90 
  -1   7   6    6.90    2.90 
  -1   7   6   13.00    2.90 
   0   7   6   -0.40    2.20 
   0   7   6    0.30    2.60 
   1   7   6    2.60    2.50 
   1   7   6    3.10    3.10 
   2   7   6    6.00    3.40 
   2   7   6    0.70    4.00 
   3   7   6    1.40    3.10 
   3   7   6    8.90    3.60 
   4   7   6    8.20    4.10 
   4   7   6    8.30    3.40 
  -5  -7  -6   27.10    4.80 
  -5  -7  -6   28.60    6.60 
   5   7   6   24.20    6.00 
  -6  -7  -6    0.20    5.30 
  -6  -7  -6    7.40    3.40 
   6   7   6    2.90    4.50 
  -7  -7  -6    1.50    6.80 
   7   7   6    2.10    5.20 
  -8  -7  -6   11.90   11.10 
 -14   8   6   18.30    7.70 
  13  -8  -6    2.70    2.90 
 -13   8   6    2.20    6.30 
  12  -8  -6   35.10    5.60 
 -12   8   6   39.80    7.70 
 -11   8   6   13.60    4.60 
  10  -8  -6   10.30    2.50 
 -10   8   6   15.50    4.20 
   9  -8  -6   -0.80    2.00 
  -9   8   6    3.00    3.30 
   8  -8  -6    1.30    2.20 
  -8   8   6    7.80    3.50 
   7  -8  -6   -0.40    1.80 
  -7   8   6   -0.10    2.80 
   6  -8  -6    1.80    1.70 
  -6   8   6   -0.10    2.90 
   5  -8  -6    2.70    1.70 
  -5   8   6    1.50    2.60 
   4  -8  -6    0.30    1.60 
  -4   8   6    1.20    2.10 
   3  -8  -6   74.49    8.30 
  -3   8   6   77.69    9.10 
   2  -8  -6   52.59    5.80 
  -2   8   6   52.29    6.80 
  -1   8   6   -3.30    2.70 
  -1   8   6    0.90    2.50 
   0   8   6    3.50    3.10 
   0   8   6    2.60    2.80 
   1   8   6    0.70    3.30 
   2   8   6    0.30    3.70 
   2   8   6    5.30    3.50 
   3   8   6   63.89    8.60 
   3   8   6   63.59    8.70 
   4   8   6   12.10    4.20 
   4   8   6   16.20    5.10 
  -5  -8  -6   13.20    5.50 
  -5  -8  -6    6.40    3.40 
   5   8   6    6.90    4.60 
  -6  -8  -6    0.00    3.80 
  -6  -8  -6    1.50    6.30 
   6   8   6   -1.70    4.90 
  -7  -8  -6    4.80   10.20 
   7   8   6    3.90    5.90 
  14  -9  -6    0.80    3.40 
 -14   9   6   11.60    7.10 
  13  -9  -6    2.10    3.00 
 -13   9   6    4.90    6.60 
  12  -9  -6    6.40    3.00 
 -12   9   6   17.80    6.00 
  11  -9  -6    7.00    2.80 
 -11   9   6   14.60    5.10 
  10  -9  -6    4.70    2.40 
 -10   9   6    5.70    4.10 
   9  -9  -6    3.00    2.20 
  -9   9   6    2.50    3.20 
   8  -9  -6    0.20    2.10 
  -8   9   6    3.30    3.30 
   7  -9  -6    8.50    2.50 
  -7   9   6    6.00    3.20 
   6  -9  -6    1.40    1.60 
   6  -9  -6   -2.40    1.80 
  -6   9   6   -1.20    3.00 
   5  -9  -6   13.10    3.10 
  -5   9   6    6.60    2.60 
   4  -9  -6    1.10    1.80 
  -4   9   6   -3.40    2.70 
   3  -9  -6   -0.20    1.60 
  -3   9   6    2.80    2.90 
  -2   9   6   -1.10    2.90 
  -1   9   6   -0.30    3.10 
   0   9   6    5.50    3.50 
   0   9   6   10.30    3.90 
   1   9   6    7.40    3.90 
   1   9   6    8.40    4.20 
   2   9   6   14.30    4.00 
   2   9   6   18.10    4.90 
   3   9   6    3.30    3.80 
   3   9   6    0.80    4.50 
  -4  -9  -6   14.20    5.90 
  -4  -9  -6   16.20    3.90 
   4   9   6   15.20    4.90 
  -5  -9  -6    8.70    6.70 
  -5  -9  -6    2.40    4.10 
   5   9   6    2.80    5.00 
  -6  -9  -6    3.20    8.40 
  -6  -9  -6    0.50    5.30 
   6   9   6    1.70    5.70 
  14 -10  -6    5.70    3.90 
 -14  10   6   18.60    7.60 
  13 -10  -6    0.50    3.10 
 -13  10   6    6.30    6.50 
  12 -10  -6   -0.30    2.90 
 -12  10   6    5.50    5.80 
  11 -10  -6   10.50    3.10 
 -11  10   6   17.10    5.70 
  10 -10  -6    4.30    2.70 
 -10  10   6    9.30    4.50 
   9 -10  -6    0.40    2.40 
  -9  10   6    1.60    4.00 
   8 -10  -6    0.10    2.30 
  -8  10   6    0.10    3.70 
   7 -10  -6   38.30    6.50 
  -7  10   6   35.10    6.40 
   6 -10  -6   11.30    2.80 
   6 -10  -6   13.60    2.80 
  -6  10   6   11.60    3.40 
   5 -10  -6  120.59   12.60 
  -5  10   6  110.89   13.30 
   4 -10  -6   -1.40    2.00 
  -4  10   6    1.50    3.30 
   3 -10  -6   27.20    4.00 
  -3  10   6   27.40    5.10 
   2 -10  -6   13.80    3.10 
  -2  10   6   18.50    4.60 
  -1  10   6   46.40    6.90 
   0  10   6   78.59   10.20 
   1  10   6   -0.40    4.20 
   2  10   6    9.40    4.90 
   3  10   6   26.50    6.60 
   3  10   6   12.60    4.50 
  -4 -10  -6   32.40    6.60 
  -4 -10  -6   34.20    8.50 
   4  10   6   35.90    7.50 
  -5 -10  -6    4.40    5.00 
  -5 -10  -6   -4.90    7.60 
   5  10   6    3.70    5.20 
 -14  11   6    5.00    7.20 
 -13  11   6   -5.60    7.20 
  12 -11  -6   -2.60    3.20 
 -12  11   6    6.50    7.00 
  11 -11  -6    2.60    3.00 
 -11  11   6    7.50    6.30 
  10 -11  -6   -3.50    2.70 
 -10  11   6   -0.80    5.30 
   9 -11  -6    4.20    2.60 
  -9  11   6    6.00    4.70 
   8 -11  -6    3.20    2.60 
  -8  11   6    6.70    4.60 
   7 -11  -6   27.60    5.70 
  -7  11   6   25.60    5.60 
   6 -11  -6    5.50    3.10 
  -6  11   6    3.80    3.80 
   5 -11  -6    0.60    2.20 
  -5  11   6    2.60    3.80 
   4 -11  -6   -1.10    2.10 
  -4  11   6   -0.60    3.70 
   3 -11  -6   -3.20    2.00 
  -3  11   6    1.10    3.70 
  -2  11   6   -1.20    3.90 
  -1  11   6   -1.50    4.30 
   0  11   6    5.20    4.50 
   1  11   6    9.20    5.10 
   2  11   6    8.70    5.50 
  -3 -11  -6    6.00    8.00 
  -4 -11  -6    8.40    7.70 
  -4 -11  -6    1.30    4.80 
  13 -12  -6   -0.40    3.90 
 -13  12   6    7.60    8.10 
  12 -12  -6    5.60    3.60 
 -12  12   6   16.70    8.00 
  11 -12  -6    7.10    3.40 
 -11  12   6    9.50    7.00 
  10 -12  -6    5.50    3.10 
 -10  12   6   11.40    6.60 
   9 -12  -6    4.10    3.00 
  -9  12   6    7.60    4.90 
   8 -12  -6    3.30    2.60 
  -8  12   6    0.30    4.40 
   7 -12  -6   -1.00    2.80 
  -7  12   6    3.60    4.50 
   6 -12  -6    2.50    4.20 
  -6  12   6    5.00    4.30 
   5 -12  -6    0.70    2.50 
  -5  12   6    0.10    4.40 
   4 -12  -6   18.30    4.40 
  -4  12   6   23.70    5.60 
   3 -12  -6    2.60    2.30 
  -3  12   6    9.10    4.50 
  -2  12   6   13.00    5.10 
  -1  12   6   -4.80    4.90 
   0  12   6   -2.10    5.50 
   1  12   6   -1.40    5.70 
   2  12   6   20.90    8.90 
  -3 -12  -6    3.30    4.90 
  -3 -12  -6    3.60    8.10 
  12 -13  -6    4.20    4.00 
 -12  13   6    2.40    9.00 
  11 -13  -6    0.50    3.50 
 -11  13   6    0.20    6.70 
  10 -13  -6    5.80    3.40 
 -10  13   6   13.10    7.10 
   9 -13  -6    1.70    3.00 
  -9  13   6   -6.50    5.80 
   8 -13  -6   -0.20    3.00 
  -8  13   6   -1.20    5.50 
   7 -13  -6   -2.60    2.90 
  -7  13   6    4.40    5.30 
   6 -13  -6    2.20    3.80 
  -6  13   6    4.50    5.10 
   5 -13  -6    0.10    3.20 
  -5  13   6    8.10    4.90 
   4 -13  -6   -3.80    2.70 
  -4  13   6    2.50    5.20 
  -3  13   6   -2.50    5.00 
  -2  13   6   -2.10    5.40 
  -1  13   6    0.50    5.60 
   0  13   6   -1.40    6.60 
   1  13   6    0.80    6.80 
  -2 -13  -6   -2.90    8.60 
 -12  14   6   19.30    9.50 
  11 -14  -6   10.00    4.20 
 -11  14   6   14.10    9.20 
  10 -14  -6    6.50    3.70 
 -10  14   6    4.60    8.50 
   9 -14  -6   -3.20    3.40 
  -9  14   6   -3.00    7.30 
   8 -14  -6    0.60    3.30 
  -8  14   6    2.20    6.40 
   7 -14  -6   66.39    8.40 
  -7  14   6   58.69   10.30 
   6 -14  -6   11.40    3.90 
  -6  14   6   14.80    6.20 
   5 -14  -6    3.20    4.80 
  -5  14   6    7.70    5.90 
  -4  14   6    5.80    6.10 
  -3  14   6   22.30    7.00 
  -2  14   6   25.60    9.20 
  -1  14   6    6.50    7.30 
   0  14   6    1.60    7.40 
  10 -15  -6    1.20    4.30 
 -10  15   6   -1.30    8.90 
   9 -15  -6   -2.10    4.00 
  -9  15   6    1.50    8.90 
   8 -15  -6   -3.20    3.80 
  -8  15   6   -0.30    7.20 
   7 -15  -6   -1.30    3.80 
  -7  15   6    7.30    6.80 
   6 -15  -6    1.90    3.90 
  -6  15   6   -6.70    7.00 
  -5  15   6   -5.60    7.70 
  -4  15   6    4.50    8.20 
  -3  15   6    4.60    7.50 
  -2  15   6   -3.50    7.30 
  -8  16   6    5.10   12.90 
  -7  16   6   -2.30    9.90 
  -6  16   6   -2.90    8.80 
  -5  16   6   12.00    8.60 
   1 -16   7   -5.60    6.10 
   1 -16   7    7.50    5.60 
   2 -16   7    0.50    5.80 
   2 -16   7   -2.00    5.40 
   3 -16   7   -2.10    5.50 
   3 -16   7   -1.00    5.30 
   4 -16   7    3.20    5.10 
   4 -16   7    1.80    5.30 
   5 -16   7   15.40    5.60 
   6 -16   7    0.40    4.70 
   7 -16   7   -2.00    5.10 
   7 -16   7    2.30    4.70 
  -2 -15   7    1.20    6.40 
  -1 -15   7    1.20    6.00 
   0 -15   7    0.70    5.00 
   1 -15   7    0.20    4.90 
   1 -15   7   -0.80    4.90 
   2 -15   7   -1.10    4.90 
   2 -15   7    4.00    4.80 
   3 -15   7    1.20    4.70 
   3 -15   7    1.70    4.60 
   4 -15   7   -1.80    4.50 
   5 -15   7   -0.80    4.30 
   6 -15   7   -4.10    4.20 
   7 -15   7   -2.50    4.30 
   8 -15   7   -2.90    4.40 
   8 -15   7    2.00    4.20 
   9 -15   7    1.20    4.50 
  -3 -14   7    2.00    5.60 
  -2 -14   7    3.50    5.60 
  -1 -14   7    2.00    4.70 
   0 -14   7   -1.60    4.70 
   1 -14   7   -0.30    4.40 
   1 -14   7    0.40    4.30 
   2 -14   7    6.50    4.30 
   2 -14   7    6.20    4.20 
   3 -14   7    1.90    4.00 
   3 -14   7   -2.10    4.00 
   4 -14   7    3.60    4.10 
   4 -14   7    1.90    3.90 
   5 -14   7   -1.40    3.60 
   5 -14   7    5.90    4.90 
   6 -14   7    2.00    3.80 
   7 -14   7   69.99    9.70 
   8 -14   7   -0.70    3.90 
   8 -14   7    6.10    3.90 
   9 -14   7    2.70    4.00 
   9 -14   7   -5.20    4.40 
  10 -14   7    4.50    4.60 
  -5 -13   7    3.10    6.00 
  -4 -13   7    3.90    5.90 
  -3 -13   7   -0.30    4.80 
  -2 -13   7   -1.60    4.60 
  -1 -13   7    4.50    4.20 
   0 -13   7   -0.70    3.90 
   1 -13   7    7.20    3.90 
   1 -13   7   -1.50    3.80 
   2 -13   7    3.30    3.80 
   2 -13   7    2.20    3.60 
   3 -13   7    3.00    3.70 
   3 -13   7    3.30    3.60 
   4 -13   7    3.00    4.60 
   4 -13   7   -0.90    3.30 
   5 -13   7    0.00    3.30 
   5 -13   7    1.80    3.40 
   6 -13   7    1.80    3.50 
   7 -13   7    4.10    3.60 
   8 -13   7    7.20    3.40 
   8 -13   7   -2.80    3.60 
   9 -13   7    2.50    3.80 
   9 -13   7    0.00    3.80 
  10 -13   7    1.40    4.00 
  11 -13   7    0.90    4.30 
  -6 -12   7   14.70    6.10 
  -5 -12   7   -3.00    5.60 
  -4 -12   7    3.80    4.80 
  -3 -12   7    3.80    4.20 
  -2 -12   7   19.70    5.20 
  -1 -12   7    8.30    3.70 
   0 -12   7    9.60    3.70 
   1 -12   7   16.40    4.00 
   1 -12   7   10.00    3.70 
   2 -12   7    1.10    3.30 
   2 -12   7    1.20    3.20 
   3 -12   7   15.90    6.10 
   3 -12   7   16.50    4.90 
   4 -12   7    0.80    3.00 
   4 -12   7    4.90    3.30 
   5 -12   7   -1.50    2.80 
   5 -12   7   -1.40    3.00 
   6 -12   7    2.10    3.20 
   7 -12   7    1.70    3.20 
   8 -12   7    0.10    3.50 
   9 -12   7    3.80    3.40 
  10 -12   7   -2.50    3.60 
  11 -12   7    2.60    4.20 
  -7 -11   7   -0.20    5.60 
  -6 -11   7   21.60    7.20 
  -5 -11   7    1.70    4.30 
  -4 -11   7    3.50    3.90 
  -3 -11   7    0.30    3.60 
  -2 -11   7   -3.20    3.30 
  -1 -11   7    0.80    3.10 
   0 -11   7   -1.20    2.90 
   1 -11   7    2.60    3.10 
   1 -11   7   -0.20    3.10 
   2 -11   7    1.20    5.20 
   2 -11   7    1.10    2.80 
   3 -11   7    1.40    2.80 
   3 -11   7    0.80    2.90 
   4 -11   7    6.20    2.90 
   4 -11   7    3.10    2.50 
   5 -11   7   -0.70    2.80 
   5 -11   7    2.80    2.40 
   6 -11   7    2.00    2.90 
   7 -11   7    0.80    2.90 
   8 -11   7   -0.20    3.20 
   9 -11   7   -3.20    3.20 
   9 -11   7   -1.20    3.40 
  10 -11   7    0.60    3.40 
  11 -11   7   12.10    4.30 
  -8 -10   7    0.10    5.50 
  -7 -10   7   19.50    6.70 
  -6 -10   7    6.40    4.50 
  -5 -10   7    2.00    3.90 
  -4 -10   7    3.20    3.50 
  -3 -10   7    4.80    3.30 
  -2 -10   7    2.20    3.00 
  -1 -10   7    0.40    2.80 
   0 -10   7  103.79   11.90 
   1 -10   7   78.09   10.10 
   1 -10   7   75.49    9.90 
   2 -10   7    1.40    2.70 
   2 -10   7    0.20    3.00 
   3 -10   7    1.90    2.90 
   3 -10   7    4.90    2.40 
   4 -10   7    3.50    3.40 
   4 -10   7    1.20    2.20 
   5 -10   7  128.69   15.10 
   5 -10   7  125.19   13.20 
   6 -10   7   26.10    5.50 
   7 -10   7    4.90    3.20 
   8 -10   7    1.00    3.10 
   9 -10   7    5.90    3.10 
   9 -10   7    4.70    3.60 
  10 -10   7    6.00    3.50 
  11 -10   7    4.00    4.00 
  12 -10   7    6.10    4.50 
  -9  -9   7    4.30    5.90 
  -8  -9   7    4.90    5.10 
  -7  -9   7    7.80    4.80 
  -6  -9   7   21.40    5.10 
  -5  -9   7    0.50    3.10 
  -4  -9   7    3.10    3.10 
  -3  -9   7   10.00    3.00 
  -2  -9   7    5.30    2.70 
  -1  -9   7    3.60    2.50 
   0  -9   7    3.40    3.70 
   1  -9   7    1.60    3.10 
   1  -9   7    1.60    2.50 
   2  -9   7    5.20    2.20 
   2  -9   7    0.40    2.50 
   3  -9   7    1.90    2.00 
   3  -9   7    2.30    2.40 
   4  -9   7   -2.10    2.30 
   4  -9   7   -1.70    1.80 
   5  -9   7    1.10    3.10 
   6  -9   7    0.80    3.30 
   7  -9   7   10.80    3.50 
   8  -9   7   -0.20    3.10 
   9  -9   7    1.10    2.90 
  10  -9   7    0.00    3.20 
  11  -9   7   -3.90    3.70 
  12  -9   7    5.00    4.70 
  -9  -8   7    7.30    5.20 
  -8  -8   7   18.10    5.20 
  -7  -8   7    8.40    3.90 
  -6  -8   7   15.80    4.40 
  -5  -8   7    1.80    2.80 
  -4  -8   7   45.30    5.90 
  -3  -8   7   99.39   11.20 
  -2  -8   7    1.10    2.50 
  -1  -8   7   10.20    3.80 
   0  -8   7    2.80    2.20 
   1  -8   7    8.90    2.40 
   1  -8   7    6.00    2.40 
   2  -8   7    1.40    2.30 
   2  -8   7    2.80    2.00 
   3  -8   7   26.80    4.20 
   3  -8   7   22.70    3.40 
   4  -8   7   -1.50    1.40 
   4  -8   7    2.30    2.30 
   5  -8   7    1.00    2.30 
   6  -8   7   10.00    4.00 
   7  -8   7   97.19   12.20 
   8  -8   7    6.60    2.70 
   8  -8   7    9.50    3.70 
   9  -8   7    4.60    3.00 
  10  -8   7    0.00    3.20 
  11  -8   7    5.50    4.00 
  12  -8   7   12.40    4.90 
 -10  -7   7    0.00    5.10 
  -9  -7   7    1.80    4.50 
  -8  -7   7    8.90    3.90 
  -7  -7   7   12.60    3.60 
  -6  -7   7    2.30    2.90 
  -5  -7   7   -0.10    2.50 
  -4  -7   7    4.00    2.40 
  -3  -7   7   -1.70    2.20 
  -2  -7   7    9.20    3.20 
  -1  -7   7    9.10    2.50 
   0  -7   7    3.80    2.30 
   0  -7   7    6.00    2.00 
   1  -7   7   12.60    3.10 
   1  -7   7   14.20    2.70 
   2  -7   7    4.00    1.70 
   2  -7   7    4.20    2.00 
   3  -7   7   18.80    3.20 
   3  -7   7   18.50    2.80 
   3  -7   7   22.70    3.70 
   4  -7   7    3.00    2.10 
   5  -7   7    1.40    2.20 
   6  -7   7   29.40    5.30 
   7  -7   7    3.00    3.90 
   8  -7   7   -0.50    3.70 
   8  -7   7    4.10    2.70 
   9  -7   7   19.80    5.70 
  10  -7   7    3.30    3.30 
  11  -7   7    2.00    3.90 
  11  -7   7    6.70    4.60 
  12  -7   7   33.80    7.50 
  12  -7   7    2.20    5.10 
 -11  -6   7   -4.30    5.30 
 -10  -6   7   -4.80    4.90 
  -9  -6   7   11.70    4.40 
  -8  -6   7   14.40    4.00 
  -7  -6   7   35.70    5.20 
  -6  -6   7   28.60    4.40 
  -5  -6   7   99.49   11.10 
  -4  -6   7    0.90    2.00 
  -3  -6   7    5.50    2.60 
  -2  -6   7    0.50    1.90 
  -1  -6   7  904.51   91.59 
   0  -6   7   39.90    4.70 
   0  -6   7   37.10    5.30 
   1  -6   7    2.90    1.80 
   1  -6   7    3.60    1.70 
   2  -6   7   -2.90    2.30 
   2  -6   7    1.40    1.40 
   2  -6   7    1.10    1.80 
   3  -6   7   45.10    5.20 
   3  -6   7   24.30    4.30 
   3  -6   7   39.60    4.20 
   4  -6   7   12.80    3.30 
   5  -6   7   67.39    8.30 
   6  -6   7   18.10    4.50 
   7  -6   7   38.50    7.90 
   8  -6   7   58.99    8.30 
   8  -6   7   55.99    9.10 
   9  -6   7   32.20    5.70 
   9  -6   7   25.30    6.20 
  10  -6   7    5.00    4.40 
  10  -6   7    7.10    3.40 
  11  -6   7    2.70    4.50 
  11  -6   7    1.80    4.20 
 -11  -5   7   -3.10    5.70 
 -10  -5   7   -1.30    3.90 
  -9  -5   7   -3.60    3.20 
  -8  -5   7   11.80    3.30 
  -7  -5   7   33.40    4.70 
  -6  -5   7   -1.10    2.20 
  -5  -5   7    1.00    2.00 
  -4  -5   7   40.50    5.00 
  -3  -5   7    0.20    2.00 
  -2  -5   7   27.50    3.80 
  -1  -5   7    2.10    1.90 
  -1  -5   7    4.00    1.80 
   0  -5   7    2.70    1.50 
   0  -5   7    1.40    1.60 
   1  -5   7   10.10    2.70 
   1  -5   7   11.20    2.10 
  -2   5  -7    1.70    1.90 
   2  -5   7    0.80    1.50 
   2  -5   7    0.50    1.60 
   3  -5   7    0.30    1.70 
   4  -5   7    2.80    2.00 
   5  -5   7    1.10    2.10 
   6  -5   7   45.00    7.00 
   7  -5   7    3.50    4.90 
   8  -5   7   15.00    4.50 
   8  -5   7   12.80    5.30 
   9  -5   7   -2.50    3.90 
   9  -5   7    6.00    3.20 
  10  -5   7   21.50    5.70 
  10  -5   7   12.50    4.00 
  11  -5   7   28.20    6.50 
  11  -5   7    2.10    4.40 
 -12  -4   7   -4.80    6.10 
 -11  -4   7    7.20    4.60 
 -10  -4   7   -0.10    3.70 
  -9  -4   7   -0.70    3.10 
  -8  -4   7   59.09    7.20 
  -7  -4   7    4.60    2.30 
  -6  -4   7    1.10    2.00 
  -5  -4   7   20.50    3.20 
  -4  -4   7    5.00    2.40 
  -3  -4   7  126.99   13.60 
  -2  -4   7   13.70    2.50 
  -1  -4   7   14.40    3.10 
  -1  -4   7   16.60    2.60 
   0  -4   7   12.00    2.50 
   0  -4   7   11.60    2.30 
  -1   4  -7  221.48   22.80 
   1  -4   7  216.88   22.80 
   1  -4   7  229.18   23.40 
  -2   4  -7  241.08   25.60 
   2  -4   7  261.67   25.70 
   2  -4   7  253.27   26.40 
   3  -4   7    1.30    1.70 
   4  -4   7   29.40    4.50 
   5  -4   7    4.10    2.70 
   6  -4   7  129.59   15.10 
   7  -4   7   63.29    7.70 
   7  -4   7   58.09    9.60 
   8  -4   7   15.90    4.90 
   8  -4   7   15.70    3.70 
   9  -4   7   -1.50    5.10 
   9  -4   7   -0.10    3.50 
  10  -4   7    2.10    4.10 
  10  -4   7    8.90    4.00 
 -12  -3   7   -5.70    6.30 
 -10  -3   7   -0.10    3.40 
  -9  -3   7    3.20    3.00 
  -8  -3   7   23.00    4.00 
  -7  -3   7   28.60    4.10 
  -6  -3   7   22.90    3.50 
  -5  -3   7    4.20    2.70 
  -4  -3   7   25.60    3.70 
  -3  -3   7    4.20    1.90 
  -2  -3   7  111.29   11.90 
  -2  -3   7  112.69   12.30 
  -1  -3   7    5.50    2.00 
  -1  -3   7    9.90    2.20 
   0  -3   7    0.20    1.40 
   0  -3   7    1.60    1.80 
  -1   3  -7    7.60    1.50 
   1  -3   7    8.50    2.30 
   1  -3   7    4.40    1.80 
  -2   3  -7   -0.80    1.10 
   2  -3   7    1.30    1.50 
   2  -3   7   -0.20    1.40 
  -3   3  -7    6.40    1.50 
   3  -3   7    9.80    2.60 
   4  -3   7   55.59    7.10 
   5  -3   7   48.70    7.60 
   6  -3   7    5.70    4.60 
   7  -3   7    1.70    4.30 
   8  -3   7   10.40    3.20 
   8  -3   7   14.90    4.20 
   9  -3   7   38.10    7.50 
   9  -3   7   38.90    6.60 
 -13  -2   7   -2.70    8.30 
 -12  -2   7    1.20    5.50 
 -11  -2   7   -3.60    4.10 
 -10  -2   7   -1.60    3.20 
  -9  -2   7   13.70    3.70 
  -8  -2   7  145.39   15.70 
  -7  -2   7   64.09    7.50 
  -6  -2   7   60.29    7.10 
  -5  -2   7   53.19    6.50 
  -4  -2   7   76.79    8.60 
  -3  -2   7   92.59   10.10 
  -2  -2   7   99.09   10.70 
  -2  -2   7  100.29   11.00 
  -1  -2   7   56.59    6.40 
  -1  -2   7   54.49    6.60 
   0  -2   7   -0.70    1.60 
   0  -2   7   -0.20    1.40 
  -1   2  -7  369.26   39.50 
   1  -2   7  413.46   39.70 
   1  -2   7  388.66   40.00 
  -2   2  -7  106.79   10.70 
   2  -2   7   98.79   11.20 
  -3   2  -7   59.49    6.40 
   3  -2   7   61.69    6.60 
   3  -2   7   57.99    7.20 
  -4   2  -7  310.87   30.20 
   4  -2   7  296.47   30.30 
   4  -2   7  284.07   31.00 
  -5   2  -7    9.00    2.40 
  -5   2  -7    6.50    2.50 
  -5   2  -7    1.60    1.60 
   5  -2   7    8.20    4.10 
  -6   2  -7   62.29    7.60 
  -6   2  -7   66.69    7.70 
   6  -2   7   62.99    7.80 
   6  -2   7   66.69   10.10 
  -7   2  -7   85.79    9.70 
   7  -2   7   86.59   10.10 
   7  -2   7   85.29   11.10 
  -8   2  -7   77.39    9.30 
   8  -2   7   81.69    9.80 
   8  -2   7   85.79   10.20 
  -9   2  -7    4.20    3.10 
   9  -2   7   11.00    4.30 
   9  -2   7    6.20    3.40 
  10  -2   7   46.40    7.90 
  10  -2   7    7.10    6.10 
  11  -2   7   56.59   10.90 
 -13  -1   7   -1.50    7.10 
 -11  -1   7    4.00    4.30 
  -9  -1   7    1.50    2.80 
  -8  -1   7   45.00    5.80 
  -7  -1   7   54.49    6.50 
  -6  -1   7    6.70    3.40 
  -5  -1   7   24.10    3.90 
  -4  -1   7   11.50    2.70 
  -3  -1   7   13.50    2.90 
  -3  -1   7   13.20    2.90 
  -2  -1   7   14.60    2.80 
  -2  -1   7   15.20    2.90 
  -1  -1   7    2.90    1.40 
  -1  -1   7    0.90    1.90 
   0  -1   7    8.70    2.40 
   0  -1   7   13.80    2.50 
  -1   1  -7   32.00    4.00 
   1  -1   7   33.30    4.30 
   1  -1   7   32.20    4.10 
  -2   1  -7   25.00    3.30 
   2  -1   7   26.30    4.10 
   2  -1   7   22.40    3.50 
  -3   1  -7    3.70    2.10 
   3  -1   7    6.40    2.90 
   3  -1   7   -0.70    1.70 
   4  -1   7   46.90    7.10 
   4  -1   7   39.90    5.20 
   5  -1   7    4.60    3.90 
  -6   1  -7    2.50    2.70 
   6  -1   7   -0.40    2.20 
   6  -1   7   -0.20    4.60 
  -7   1  -7    4.40    3.10 
   7  -1   7    0.60    2.60 
   7  -1   7    4.80    2.70 
  -8   1  -7   38.10    6.40 
   8  -1   7   58.19    7.20 
   8  -1   7   36.30    6.40 
  -9   1  -7    4.80    4.00 
   9  -1   7    2.20    3.40 
   9  -1   7   24.00    6.00 
  11  -1   7   66.29   11.80 
 -13   0   7   -7.00    6.30 
 -12   0   7   14.90    5.70 
 -10   0   7   40.30    6.10 
  -9   0   7    2.30    2.80 
  -8   0   7   11.70    3.10 
  -7   0   7   46.00    6.00 
  -6   0   7   31.20    5.20 
  -5   0   7   71.49    8.40 
  -4   0   7   15.70    3.00 
  -4   0   7   11.60    2.80 
  -3   0   7   -0.10    1.30 
  -3   0   7    2.10    1.90 
  -2   0   7    0.30    1.30 
  -2   0   7   -1.80    1.70 
  -1   0   7  821.42   82.99 
  -1   0   7  820.02   82.99 
   0   0   7    2.60    1.50 
   0   0   7   -1.30    1.50 
   1   0   7  614.64   64.69 
   1   0   7  661.03   64.69 
   2   0   7   40.90    5.50 
   2   0   7   32.10    4.50 
   3   0   7    5.20    2.20 
   3   0   7    9.90    3.70 
   4   0   7    1.50    3.30 
   4   0   7   -0.40    2.30 
   5   0   7    1.90    3.80 
   5   0   7    0.70    2.20 
  -6   0  -7  103.29   10.60 
  -6   0  -7  104.99   11.40 
   6   0   7   91.39   11.90 
   6   0   7  100.49   11.20 
  -7   0  -7   11.80    3.90 
   7   0   7    9.00    3.50 
   7   0   7    9.00    3.00 
  -8   0  -7    6.90    4.40 
   8   0   7    6.60    3.00 
   8   0   7   14.80    4.20 
  -9   0  -7   -0.80    5.30 
  10   0   7   96.39   13.20 
  11   0   7   53.69   11.80 
 -14   1   7   -8.30    9.40 
 -13   1   7   -0.10    6.40 
 -12   1   7   -5.40    4.40 
  11  -1  -7    2.40    2.40 
 -11   1   7    4.50    4.10 
  10  -1  -7   13.70    3.40 
 -10   1   7   13.30    4.00 
   9  -1  -7   23.30    4.50 
  -9   1   7   22.00    4.40 
   8  -1  -7   11.50    2.60 
  -8   1   7   17.20    3.80 
   7  -1  -7   99.29   10.10 
  -7   1   7   83.99   10.70 
   6  -1  -7    1.10    1.20 
  -6   1   7    1.20    2.80 
  -5   1   7    4.30    2.40 
  -4   1   7    0.10    1.40 
  -4   1   7    0.30    2.00 
  -3   1   7    0.20    1.80 
  -3   1   7    1.90    1.30 
  -2   1   7    6.50    1.60 
  -2   1   7    5.00    2.20 
  -1   1   7   16.40    2.70 
  -1   1   7   10.10    2.50 
   0   1   7    1.90    2.00 
   0   1   7   -1.00    1.50 
   1   1   7    3.40    2.10 
   1   1   7    5.70    2.70 
   2   1   7    7.10    2.50 
   2   1   7    7.30    3.10 
   3   1   7    2.30    2.30 
   3   1   7    3.90    3.40 
   4   1   7    3.60    3.30 
   4   1   7    0.80    2.50 
   5   1   7    0.30    2.20 
   5   1   7   -5.10    4.20 
  -6  -1  -7   -0.10    3.50 
  -6  -1  -7    0.10    2.10 
   6   1   7    0.90    3.10 
   6   1   7    2.50    2.40 
  -7  -1  -7    0.70    4.20 
   7   1   7   10.20    3.90 
   7   1   7    1.40    2.50 
  -8  -1  -7    7.30    6.10 
   8   1   7    8.40    4.90 
  -9  -1  -7    2.50    5.10 
   9   1   7   28.70    7.90 
 -10  -1  -7    4.70    5.80 
  10   1   7   34.70    8.40 
 -14   2   7   21.40    9.10 
  13  -2  -7   -1.20    3.00 
 -13   2   7   -6.30    6.20 
  12  -2  -7   -1.80    2.50 
 -12   2   7   -5.00    4.20 
  11  -2  -7   18.10    3.70 
 -11   2   7   14.60    4.60 
  10  -2  -7   19.00    3.50 
 -10   2   7   18.60    4.60 
  -9   2   7    7.30    3.20 
   8  -2  -7   60.09    7.10 
  -8   2   7   59.39    7.80 
   7  -2  -7    8.90    1.90 
  -7   2   7    8.60    4.00 
   6  -2  -7   26.40    3.40 
  -6   2   7   24.20    4.70 
   5  -2  -7  165.58   17.70 
  -5   2   7  169.68   18.20 
  -5   2   7  176.88   17.60 
  -4   2   7   19.80    2.70 
  -3   2   7  264.97   27.90 
  -3   2   7  283.87   28.40 
  -2   2   7  111.89   11.50 
  -2   2   7  103.79   11.70 
  -1   2   7  375.86   38.50 
  -1   2   7  379.46   38.80 
   0   2   7   90.29   10.10 
   0   2   7   86.99    9.90 
   1   2   7  426.76   43.50 
   1   2   7  421.36   43.60 
   2   2   7  101.29   11.00 
   2   2   7   94.99   11.30 
   3   2   7   76.39    9.60 
   3   2   7   74.49    8.70 
   4   2   7   11.20    3.10 
   4   2   7    2.50    3.90 
   5   2   7    6.10    3.70 
  -6  -2  -7   56.69    9.90 
  -6  -2  -7   59.19    7.80 
   6   2   7   59.49    8.30 
  -7  -2  -7    0.50    4.30 
   7   2   7    3.20    4.20 
  -8  -2  -7    1.70    5.10 
   8   2   7   10.80    4.90 
  -9  -2  -7    7.70    6.00 
   9   2   7   33.40    8.60 
  10   2   7   62.59   12.10 
  14  -3  -7    0.00    3.50 
 -14   3   7    5.80    8.00 
  13  -3  -7    4.90    2.90 
 -13   3   7    6.80    6.30 
  12  -3  -7    0.30    2.40 
 -12   3   7    1.60    4.20 
  11  -3  -7    3.50    2.00 
 -11   3   7    6.50    3.70 
  10  -3  -7   29.40    4.30 
 -10   3   7   29.50    5.30 
   9  -3  -7    0.90    1.80 
  -9   3   7    3.30    3.20 
   8  -3  -7   39.40    5.00 
  -8   3   7   32.70    5.90 
   7  -3  -7    8.90    1.90 
  -7   3   7    6.50    3.80 
   6  -3  -7   19.90    3.10 
  -6   3   7   21.30    2.80 
  -6   3   7   20.40    4.10 
   5  -3  -7   -0.30    1.20 
  -5   3   7   -0.90    2.30 
   4  -3  -7   33.20    3.90 
  -4   3   7   31.20    4.50 
  -4   3   7   31.70    3.90 
  -3   3   7   11.30    2.80 
  -3   3   7   11.90    2.70 
  -2   3   7   -0.80    1.80 
  -2   3   7    1.80    2.00 
  -1   3   7   24.00    4.10 
  -1   3   7   24.80    4.00 
   0   3   7   65.79    7.60 
   0   3   7   59.79    7.50 
   1   3   7    0.30    2.20 
   1   3   7   -0.40    2.30 
   2   3   7    6.40    2.50 
   2   3   7   -0.50    2.70 
   3   3   7    3.10    3.00 
   4   3   7   -5.70    4.80 
   4   3   7    1.60    4.10 
   5   3   7    2.20    4.40 
  -6  -3  -7    1.50    2.40 
  -6  -3  -7    2.10    4.00 
   6   3   7   -2.30    3.80 
  -7  -3  -7    0.50    4.90 
   7   3   7   11.20    4.50 
  -8  -3  -7   14.40    6.00 
  -9  -3  -7   12.00    7.00 
   9   3   7   43.90    8.40 
 -10  -3  -7   -2.50    6.30 
  10   3   7   13.30    6.80 
  14  -4  -7    2.30    3.40 
 -14   4   7   14.50    7.90 
  13  -4  -7    0.80    2.60 
 -13   4   7    6.70    5.90 
  12  -4  -7    0.20    2.40 
 -12   4   7    4.20    4.50 
  11  -4  -7   17.20    3.70 
 -11   4   7   18.90    5.10 
  10  -4  -7   25.50    3.70 
 -10   4   7   20.50    4.70 
   9  -4  -7    6.10    1.90 
  -9   4   7    4.20    3.20 
   8  -4  -7   51.79    6.20 
  -8   4   7   45.90    6.80 
   7  -4  -7   24.30    3.30 
  -7   4   7   17.30    4.90 
   6  -4  -7    2.50    1.40 
  -6   4   7    0.50    2.80 
   5  -4  -7   50.29    5.70 
  -5   4   7   50.19    6.70 
   4  -4  -7  112.29   11.40 
   4  -4  -7  104.79   11.10 
  -4   4   7  103.09   11.90 
  -4   4   7  111.79   11.30 
   3  -4  -7   13.10    2.30 
  -3   4   7   12.10    3.10 
  -3   4   7   15.30    3.00 
  -2   4   7  227.88   25.20 
  -2   4   7  253.87   24.90 
  -1   4   7  106.69   12.40 
  -1   4   7  114.59   12.10 
   0   4   7    2.00    2.20 
   0   4   7   -2.80    2.30 
   1   4   7   15.20    3.80 
   1   4   7   12.20    3.40 
   2   4   7   20.10    4.80 
   2   4   7   20.00    4.60 
   3   4   7   -0.20    4.10 
   4   4   7   -2.70    3.10 
   4   4   7    7.00    3.50 
   5   4   7   10.40    3.90 
   5   4   7   21.90    5.40 
  -6  -4  -7    2.40    4.30 
  -6  -4  -7   -0.20    2.60 
   6   4   7    6.40    4.60 
  -7  -4  -7    0.60    5.20 
  -7  -4  -7    2.10    3.40 
   7   4   7    9.60    4.80 
  -8  -4  -7   -1.30    6.00 
   8   4   7   11.00    5.20 
  -9  -4  -7   76.69   13.30 
   9   4   7   89.49   12.40 
  14  -5  -7    1.70    3.30 
 -14   5   7   14.70    6.80 
  13  -5  -7   -2.80    2.70 
 -13   5   7    9.60    5.70 
  12  -5  -7    1.40    2.30 
 -12   5   7    3.20    4.20 
  11  -5  -7    0.30    2.10 
 -11   5   7    3.50    3.20 
  10  -5  -7    0.20    1.80 
 -10   5   7    3.50    3.10 
   9  -5  -7    4.70    1.70 
  -9   5   7    3.20    3.00 
   8  -5  -7   34.50    4.40 
  -8   5   7   20.00    5.20 
   7  -5  -7    2.40    1.60 
  -7   5   7   -0.50    3.50 
   6  -5  -7    4.40    1.50 
  -6   5   7    0.50    2.90 
   5  -5  -7   20.50    2.90 
  -5   5   7   16.30    4.00 
   4  -5  -7   -0.70    1.30 
  -4   5   7    2.50    1.60 
  -4   5   7    1.10    2.40 
   3  -5  -7    4.30    1.30 
  -3   5   7    2.70    2.30 
  -3   5   7    5.80    2.30 
  -2   5   7    6.40    2.50 
  -2   5   7    1.80    2.10 
  -1   5   7   -1.30    2.20 
  -1   5   7    2.90    2.60 
   0   5   7   14.80    3.50 
   0   5   7   18.00    4.40 
   1   5   7    4.80    3.40 
   2   5   7   -0.30    3.10 
   3   5   7    2.90    3.40 
   4   5   7   13.30    3.80 
   4   5   7   10.50    4.00 
   5   5   7    8.30    4.20 
  -6  -5  -7    1.80    4.60 
  -6  -5  -7    6.10    3.00 
   6   5   7    7.20    3.80 
  -7  -5  -7    6.70    3.90 
  -7  -5  -7    0.50    5.80 
   7   5   7    8.40    4.80 
  -8  -5  -7   -2.20    6.50 
   8   5   7   11.80    5.60 
 -14   6   7   17.40    7.20 
 -13   6   7   30.00    8.00 
  12  -6  -7   14.30    2.90 
  11  -6  -7   18.20    3.70 
  10  -6  -7   18.50    3.60 
 -10   6   7   22.70    5.00 
   9  -6  -7   92.69   10.10 
  -9   6   7   92.09   11.00 
   8  -6  -7    3.20    2.10 
  -8   6   7   -2.30    3.00 
   7  -6  -7   -0.40    1.50 
  -7   6   7    0.00    2.70 
   6  -6  -7   61.49    6.50 
  -6   6   7   48.80    7.40 
   5  -6  -7  212.08   21.10 
  -5   6   7  194.18   21.90 
   4  -6  -7   99.39   10.40 
  -4   6   7   94.49   11.50 
   3  -6  -7    1.00    1.30 
  -3   6   7    1.00    3.40 
  -3   6   7   -1.50    2.10 
   2  -6  -7    1.90    1.40 
  -2   6   7    2.30    2.50 
  -2   6   7    2.00    2.20 
  -1   6   7   23.20    4.40 
  -1   6   7   31.00    4.60 
   0   6   7   35.50    5.50 
   0   6   7   39.60    5.50 
   1   6   7   55.19    7.20 
   1   6   7   53.69    7.20 
   2   6   7    3.00    3.50 
   2   6   7    2.60    3.50 
   3   6   7    2.30    3.70 
   3   6   7    3.10    3.30 
   4   6   7   25.20    5.30 
   4   6   7   22.80    5.80 
  -5  -6  -7    3.40    4.50 
  -5  -6  -7   -1.90    2.70 
   5   6   7    5.80    4.00 
  -6  -6  -7    5.30    3.50 
  -6  -6  -7    2.50    5.40 
   6   6   7    8.20    4.50 
  -7  -6  -7    5.00    6.60 
   7   6   7    1.80    5.20 
  -8  -6  -7   10.40    8.00 
   8   6   7    8.80    5.50 
  14  -7  -7    1.90    3.30 
 -14   7   7   22.90    8.10 
 -13   7   7   35.90    9.30 
  12  -7  -7    0.40    2.40 
 -12   7   7    2.70    5.20 
 -11   7   7   18.50    5.00 
  10  -7  -7   21.20    4.00 
 -10   7   7   25.90    5.30 
   9  -7  -7   -1.50    1.80 
  -9   7   7    2.20    3.10 
   8  -7  -7    6.10    2.50 
  -8   7   7    8.50    3.20 
   7  -7  -7    3.70    1.80 
  -7   7   7    1.90    2.70 
   6  -7  -7    3.10    1.70 
  -6   7   7    2.80    2.50 
   5  -7  -7   12.80    2.70 
  -5   7   7   10.80    2.90 
   4  -7  -7   -0.10    1.40 
  -4   7   7   -1.60    2.40 
   3  -7  -7    8.00    1.80 
  -3   7   7    4.80    2.80 
  -3   7   7    7.40    2.90 
   2  -7  -7    0.00    1.40 
  -2   7   7    0.60    2.50 
  -1   7   7    3.90    2.70 
  -1   7   7    0.70    2.20 
   0   7   7    2.40    2.90 
   1   7   7   -0.40    3.30 
   1   7   7   -0.80    3.10 
   2   7   7   -0.60    3.60 
   2   7   7   -1.40    4.50 
   3   7   7    5.40    3.50 
   3   7   7    5.50    3.90 
   4   7   7    1.10    3.90 
   4   7   7    0.60    4.20 
  -5  -7  -7   -1.10    5.30 
  -5  -7  -7    0.30    3.30 
   5   7   7    1.10    4.00 
  -6  -7  -7    0.30    6.30 
  -6  -7  -7    1.30    3.70 
   6   7   7    0.20    4.40 
  -7  -7  -7    2.70    8.50 
   7   7   7    0.30    5.30 
  14  -8  -7    1.60    3.30 
 -14   8   7   17.60    7.90 
  13  -8  -7    4.30    3.10 
 -13   8   7   18.70    6.60 
  12  -8  -7    3.50    2.70 
 -12   8   7    9.70    5.10 
  11  -8  -7   21.70    4.30 
 -11   8   7   22.60    5.80 
  10  -8  -7   29.10    4.60 
 -10   8   7   34.00    5.80 
   9  -8  -7    1.20    1.90 
  -9   8   7    2.80    3.50 
   8  -8  -7    1.30    2.00 
  -8   8   7   -2.90    2.90 
   7  -8  -7   14.40    3.40 
  -7   8   7   11.50    3.20 
   6  -8  -7    4.80    1.80 
  -6   8   7    0.90    2.90 
   5  -8  -7    1.60    1.70 
  -5   8   7   -0.10    2.70 
   4  -8  -7    3.00    1.70 
  -4   8   7    5.00    2.90 
   3  -8  -7    9.80    2.00 
  -3   8   7    9.60    2.80 
   2  -8  -7    1.10    1.40 
  -2   8   7   -1.80    2.60 
  -2   8   7    2.70    2.80 
  -1   8   7    8.20    3.00 
  -1   8   7    3.00    3.00 
   0   8   7   -0.70    2.80 
   0   8   7   -1.70    3.30 
   1   8   7   14.30    4.20 
   1   8   7   11.30    5.20 
   2   8   7   10.10    4.30 
   2   8   7   10.60    3.90 
   3   8   7   46.40    7.10 
   3   8   7   42.70    7.30 
   4   8   7   54.89    8.30 
   4   8   7   56.19    8.50 
  -5  -8  -7   11.50    6.40 
  -5  -8  -7    5.60    4.00 
   5   8   7   -1.30    4.90 
  -6  -8  -7    1.00    7.20 
  -6  -8  -7    4.70    4.50 
   6   8   7    3.10    5.50 
  14  -9  -7    1.80    3.60 
 -14   9   7   14.30    8.30 
  13  -9  -7   -4.60    3.00 
 -13   9   7    3.30    6.60 
  12  -9  -7    8.60    3.10 
 -12   9   7   21.20    6.70 
  11  -9  -7   10.80    3.00 
 -11   9   7   17.10    5.10 
  10  -9  -7    0.80    2.20 
 -10   9   7    4.00    4.00 
   9  -9  -7    0.60    2.20 
  -9   9   7   -3.30    3.30 
   8  -9  -7    1.40    2.20 
  -8   9   7    0.10    3.40 
   7  -9  -7    5.50    2.70 
  -7   9   7    9.00    3.70 
   6  -9  -7   -0.40    2.00 
  -6   9   7   -0.30    3.10 
   5  -9  -7    0.10    1.80 
  -5   9   7   -0.40    3.20 
   4  -9  -7   17.80    3.40 
  -4   9   7   14.10    3.40 
   3  -9  -7    1.60    1.70 
  -3   9   7   -0.30    3.10 
   2  -9  -7   -1.40    1.50 
  -2   9   7   -2.40    3.20 
  -1   9   7    2.00    3.40 
  -1   9   7   -0.80    3.00 
   0   9   7    1.20    3.80 
   0   9   7    5.00    4.10 
   1   9   7    2.50    3.80 
   1   9   7    3.20    4.30 
   2   9   7    7.40    4.60 
   2   9   7    7.80    4.00 
   3   9   7    2.20    4.20 
   3   9   7    3.80    4.90 
   4   9   7    7.70    5.20 
  -5  -9  -7   -0.80    7.40 
  -5  -9  -7   -3.70    4.50 
   5   9   7    4.60    5.20 
  14 -10  -7   -3.00    3.60 
 -14  10   7   11.70    8.30 
  13 -10  -7    3.00    3.50 
 -13  10   7    8.80    7.20 
  12 -10  -7   22.30    5.30 
 -12  10   7   32.00    8.60 
  11 -10  -7   80.09    9.60 
 -11  10   7   82.49   11.20 
  10 -10  -7   93.59   10.60 
 -10  10   7   89.99   11.70 
   9 -10  -7    2.00    2.50 
  -9  10   7    3.90    4.30 
   8 -10  -7    2.50    2.30 
  -8  10   7    0.90    3.70 
   7 -10  -7    3.80    3.60 
  -7  10   7    6.90    3.80 
   6 -10  -7   49.60    6.50 
  -6  10   7   46.70    6.90 
   5 -10  -7   26.20    4.30 
  -5  10   7   29.10    5.30 
   4 -10  -7   16.70    3.50 
  -4  10   7   21.30    4.70 
   3 -10  -7    1.80    1.80 
  -3  10   7    6.60    3.60 
   2 -10  -7   -0.20    1.80 
  -2  10   7   -3.90    3.50 
  -1  10   7    0.70    3.90 
   0  10   7   -0.50    4.40 
   1  10   7    5.60    3.90 
   1  10   7   -3.00    4.80 
   2  10   7   15.50    5.40 
   2  10   7   15.60    4.90 
   3  10   7   17.50    5.50 
   3  10   7   15.80    6.40 
  -4 -10  -7   10.10    9.50 
  -4 -10  -7   14.30    5.90 
   4  10   7   17.10    5.80 
  -5 -10  -7    6.20    8.30 
  13 -11  -7    0.40    3.60 
 -13  11   7    5.50    7.70 
  12 -11  -7   17.60    4.20 
 -12  11   7   24.60    8.00 
  11 -11  -7    2.50    3.00 
 -11  11   7    7.20    6.30 
  10 -11  -7    3.90    2.90 
 -10  11   7    0.20    5.20 
   9 -11  -7    2.00    2.60 
  -9  11   7    0.90    4.60 
   8 -11  -7    1.60    2.50 
  -8  11   7   -1.70    4.30 
   7 -11  -7   14.60    3.80 
  -7  11   7   14.70    4.60 
   6 -11  -7   11.40    3.80 
  -6  11   7   13.70    4.30 
   5 -11  -7    2.10    2.10 
  -5  11   7    3.90    3.90 
   4 -11  -7   -1.30    2.10 
  -3  11   7    1.00    3.80 
  -2  11   7    8.20    4.40 
  -1  11   7    4.10    4.80 
   0  11   7    7.40    5.10 
   1  11   7   -5.10    5.10 
   2  11   7    5.20    5.80 
   3  11   7    2.10    7.30 
  13 -12  -7    4.20    3.80 
 -13  12   7   12.40    8.70 
  12 -12  -7    4.50    3.70 
 -12  12   7    8.00    7.60 
  11 -12  -7   12.30    3.70 
 -11  12   7   12.60    7.70 
  10 -12  -7    3.10    3.00 
 -10  12   7    1.50    6.30 
   9 -12  -7   -1.10    2.90 
  -9  12   7   -0.70    4.00 
   8 -12  -7   14.10    3.30 
  -8  12   7   14.20    5.10 
   7 -12  -7    6.10    3.10 
  -7  12   7    8.00    4.80 
   6 -12  -7    0.80    3.90 
  -6  12   7   -1.20    4.50 
   5 -12  -7    1.80    2.50 
  -5  12   7   -4.00    4.50 
   4 -12  -7   -0.20    2.30 
  -4  12   7    1.60    4.30 
  -3  12   7   -2.10    4.50 
  -2  12   7   -0.40    4.80 
  -1  12   7   -3.50    5.20 
   0  12   7   16.60    6.30 
   1  12   7    5.00    6.90 
   2  12   7    8.20    7.60 
  12 -13  -7    7.10    3.90 
 -12  13   7    7.30    9.20 
  11 -13  -7    1.80    3.50 
 -11  13   7   -3.50    6.40 
  10 -13  -7    0.40    3.40 
 -10  13   7    5.40    6.70 
   9 -13  -7   -1.50    3.30 
  -9  13   7    1.70    5.70 
   8 -13  -7   -0.80    3.10 
  -8  13   7   -1.10    5.40 
   7 -13  -7    6.70    3.20 
  -7  13   7    4.10    5.40 
   6 -13  -7    1.50    3.90 
  -6  13   7    2.70    5.30 
   5 -13  -7   -2.10    2.90 
  -5  13   7    9.90    5.20 
  -4  13   7    1.60    5.00 
  -3  13   7    1.20    5.50 
  -2  13   7    6.20    6.00 
  -1  13   7    1.60    6.80 
   0  13   7   -3.10    7.30 
   1  13   7   -6.70    6.90 
  11 -14  -7   -0.40    4.00 
 -11  14   7    1.70    8.20 
  10 -14  -7    1.50    3.90 
 -10  14   7   -2.30    8.00 
   9 -14  -7   -1.70    3.60 
  -9  14   7    6.60    7.80 
   8 -14  -7   -0.60    3.50 
  -8  14   7    4.40    6.60 
   7 -14  -7    1.80    3.50 
  -7  14   7    2.00    6.30 
   6 -14  -7   27.90    6.00 
  -6  14   7   28.50    8.10 
  -5  14   7   -2.00    6.10 
  -4  14   7    0.70    6.20 
  -3  14   7    9.50    8.30 
  -2  14   7   -5.10    7.30 
  -1  14   7    3.30    7.00 
 -10  15   7    5.10   12.20 
   9 -15  -7    3.80    4.20 
  -9  15   7    6.60   10.30 
   8 -15  -7   -5.50    3.90 
  -8  15   7    6.80    8.80 
   7 -15  -7    2.10    3.80 
  -7  15   7    0.20    8.60 
  -6  15   7    2.20    9.00 
  -5  15   7   -2.80    7.90 
  -4  15   7    3.30    7.80 
  -3  15   7    0.60    7.60 
   1 -16   8   -4.70    5.80 
   1 -16   8    5.70    6.50 
   2 -16   8    5.20    5.60 
   2 -16   8    2.60    5.70 
   3 -16   8   -3.30    5.20 
   3 -16   8   -0.90    5.40 
   4 -16   8   -1.20    5.00 
   5 -16   8    1.30    5.00 
   6 -16   8   11.70    5.30 
   7 -16   8   -0.80    5.00 
  -1 -15   8    4.80    6.30 
   0 -15   8   -2.60    5.20 
   0 -15   8    3.60    5.60 
   1 -15   8   -3.10    5.40 
   1 -15   8    1.40    4.90 
   2 -15   8    6.00    5.20 
   2 -15   8   -0.60    4.70 
   3 -15   8   -0.80    4.50 
   3 -15   8    2.20    4.60 
   4 -15   8    1.40    4.40 
   4 -15   8   -2.70    4.40 
   5 -15   8    5.30    4.40 
   6 -15   8   -4.30    4.30 
   7 -15   8   -5.60    4.70 
   8 -15   8   -2.20    4.40 
   8 -15   8   -3.30    4.40 
  -3 -14   8   22.30    6.90 
  -2 -14   8    4.40    5.40 
  -1 -14   8   -1.20    4.70 
   0 -14   8   -2.30    4.70 
   0 -14   8   -2.40    4.30 
   1 -14   8   39.50    8.80 
   1 -14   8   49.60    7.30 
   2 -14   8   28.90    6.90 
   2 -14   8   20.40    5.70 
   3 -14   8   -2.70    3.80 
   3 -14   8    0.50    4.20 
   4 -14   8   -2.80    3.80 
   4 -14   8   -1.30    4.00 
   5 -14   8    1.50    4.00 
   6 -14   8    9.50    4.20 
   7 -14   8   -3.90    4.20 
   8 -14   8   -0.40    4.10 
   9 -14   8    5.40    4.50 
   9 -14   8   -1.90    4.60 
  -4 -13   8   12.20    6.30 
  -3 -13   8    7.60    4.90 
  -2 -13   8    4.40    4.50 
  -1 -13   8   -4.00    4.00 
   0 -13   8    0.00    4.00 
   1 -13   8    2.60    4.20 
   1 -13   8   -0.40    3.70 
   2 -13   8   -0.90    3.80 
   2 -13   8   -1.70    3.60 
   3 -13   8   -0.10    3.50 
   3 -13   8    1.10    3.60 
   4 -13   8    5.10    5.10 
   4 -13   8    0.50    3.40 
   5 -13   8   -1.50    3.30 
   6 -13   8    2.60    3.60 
   7 -13   8    4.40    3.80 
   8 -13   8    2.80    3.80 
   9 -13   8   -1.30    4.10 
   9 -13   8    5.60    3.90 
  10 -13   8    9.50    4.60 
  -6 -12   8   16.80    6.30 
  -5 -12   8    3.30    5.80 
  -4 -12   8    3.50    4.60 
  -3 -12   8   11.30    4.50 
  -2 -12   8   -0.90    3.80 
  -1 -12   8    1.10    3.50 
   0 -12   8    0.30    3.40 
   0 -12   8    0.60    3.60 
   1 -12   8    1.10    3.70 
   1 -12   8   -1.10    3.20 
   2 -12   8    2.10    3.20 
   2 -12   8   -1.40    3.30 
   3 -12   8    9.30    5.50 
   3 -12   8   13.40    3.90 
   4 -12   8   27.40    5.30 
   4 -12   8   23.10    4.50 
   5 -12   8   -2.70    3.10 
   5 -12   8   -2.10    3.10 
   6 -12   8   -2.00    3.30 
   7 -12   8   -4.00    3.20 
   8 -12   8    0.50    3.40 
   9 -12   8   10.00    4.10 
   9 -12   8    6.60    4.00 
  10 -12   8    2.60    4.90 
  10 -12   8   14.10    4.50 
  11 -12   8   -0.70    4.60 
  -7 -11   8    0.90    5.90 
  -6 -11   8   32.60    8.40 
  -5 -11   8    9.00    4.60 
  -4 -11   8    3.70    3.90 
  -3 -11   8    2.40    3.80 
  -2 -11   8   -1.50    3.20 
  -1 -11   8   -0.90    3.10 
   0 -11   8    3.00    3.00 
   0 -11   8    2.30    3.30 
   1 -11   8    1.90    3.00 
   1 -11   8    3.20    3.30 
   2 -11   8    3.90    4.50 
   2 -11   8    4.60    2.90 
   3 -11   8    0.80    2.70 
   3 -11   8   -3.30    2.60 
   4 -11   8    3.30    2.80 
   4 -11   8    0.40    2.40 
   5 -11   8   -0.20    2.90 
   5 -11   8    1.30    2.30 
   6 -11   8   19.50    4.90 
   7 -11   8    0.60    3.00 
   8 -11   8    2.90    3.30 
   9 -11   8    1.40    3.40 
   9 -11   8   -2.60    3.70 
  10 -11   8   16.40    4.20 
  11 -11   8    0.80    4.20 
  -8 -10   8   -4.30    5.40 
  -7 -10   8    8.50    5.90 
  -6 -10   8   27.70    6.40 
  -5 -10   8   46.90    7.10 
  -4 -10   8   18.40    4.40 
  -3 -10   8   10.00    3.30 
  -2 -10   8    2.80    3.00 
  -1 -10   8    1.00    2.80 
   0 -10   8   40.40    5.70 
   0 -10   8   38.60    5.80 
   1 -10   8    5.10    4.40 
   1 -10   8    4.90    2.70 
   2 -10   8    2.80    2.70 
   2 -10   8   -2.30    2.70 
   3 -10   8   15.30    3.90 
   3 -10   8   18.60    3.30 
   4 -10   8    4.10    2.20 
   4 -10   8    8.40    2.90 
   5 -10   8    3.00    2.90 
   6 -10   8   94.29   11.40 
   7 -10   8   -1.80    2.80 
   8 -10   8   21.60    5.20 
   9 -10   8   15.80    4.70 
   9 -10   8   22.50    5.50 
  10 -10   8   24.20    6.90 
  11 -10   8    5.70    4.30 
  -8  -9   8   -1.20    5.40 
  -7  -9   8    6.90    4.50 
  -6  -9   8   20.90    5.20 
  -5  -9   8    5.30    3.40 
  -4  -9   8    1.40    3.00 
  -3  -9   8    2.60    3.10 
  -2  -9   8    1.70    2.60 
  -1  -9   8    0.70    2.50 
   0  -9   8    1.00    3.60 
   0  -9   8    2.80    2.90 
   1  -9   8   13.30    3.10 
   1  -9   8    9.10    3.70 
   2  -9   8    2.60    3.10 
   2  -9   8   -0.70    2.20 
   3  -9   8   -1.90    1.90 
   3  -9   8   -0.30    2.80 
   4  -9   8    9.60    3.80 
   4  -9   8    8.40    2.40 
   5  -9   8    2.20    2.80 
   6  -9   8   12.00    3.50 
   7  -9   8   -0.60    2.90 
   8  -9   8   16.10    4.30 
   9  -9   8   14.20    3.60 
   9  -9   8    0.80    4.00 
  10  -9   8   -1.60    3.50 
  11  -9   8    5.00    4.30 
  12  -9   8    0.50    4.80 
  -9  -8   8    0.70    5.30 
  -8  -8   8    4.80    4.80 
  -7  -8   8    2.10    3.70 
  -6  -8   8    4.10    3.30 
  -5  -8   8   26.00    4.70 
  -4  -8   8    4.90    2.80 
  -3  -8   8    2.20    2.50 
  -2  -8   8    6.50    2.80 
  -1  -8   8    2.40    3.20 
   0  -8   8    4.90    2.50 
   0  -8   8    2.90    2.80 
   1  -8   8   -1.30    2.10 
   1  -8   8    0.80    2.30 
   2  -8   8   63.09    7.20 
   2  -8   8   64.29    8.20 
   3  -8   8   25.60    4.50 
   3  -8   8   23.10    3.30 
   4  -8   8    9.80    3.30 
   5  -8   8    1.80    3.00 
   6  -8   8    3.90    3.00 
   7  -8   8    6.00    3.00 
   8  -8   8   73.89    9.80 
   9  -8   8    8.30    3.20 
   9  -8   8   -3.10    4.00 
  10  -8   8    2.90    3.50 
  11  -8   8    0.40    3.90 
  12  -8   8    5.80    5.60 
  12  -8   8    1.90    5.70 
 -10  -7   8    0.30    5.10 
  -9  -7   8   -2.70    4.30 
  -8  -7   8    4.70    3.80 
  -7  -7   8   -1.10    3.30 
  -6  -7   8   -3.30    2.80 
  -5  -7   8   26.30    4.30 
  -4  -7   8    0.40    2.40 
  -3  -7   8    2.10    2.30 
  -2  -7   8   14.40    3.90 
  -1  -7   8   14.10    3.80 
  -1  -7   8   14.70    3.10 
   0  -7   8    2.00    2.20 
   0  -7   8    2.70    1.90 
   1  -7   8    2.10    2.00 
   1  -7   8    1.30    1.80 
   2  -7   8    1.30    2.00 
   2  -7   8    2.10    1.70 
   3  -7   8   10.50    2.90 
   3  -7   8    7.50    2.80 
   3  -7   8   11.10    2.20 
   4  -7   8    2.00    2.40 
   5  -7   8    1.00    2.80 
   6  -7   8   35.80    6.50 
   7  -7   8    1.00    3.40 
   8  -7   8   14.80    4.90 
   9  -7   8    6.30    3.30 
  10  -7   8    0.10    3.50 
  11  -7   8   -1.80    4.70 
  11  -7   8    1.80    4.30 
  12  -7   8    7.70    6.00 
  12  -7   8   34.60    7.50 
 -11  -6   8   -1.80    5.60 
 -10  -6   8    1.60    5.60 
  -9  -6   8   -2.50    3.70 
  -8  -6   8    6.00    3.40 
  -7  -6   8   12.50    3.20 
  -6  -6   8   13.30    3.50 
  -5  -6   8    1.60    2.30 
  -4  -6   8   -0.70    2.20 
  -3  -6   8   31.90    4.60 
  -2  -6   8   32.30    4.60 
  -1  -6   8   49.50    5.90 
  -1  -6   8   50.19    6.60 
   0  -6   8  229.58   25.20 
   0  -6   8  242.78   24.40 
   1  -6   8   34.20    4.20 
   1  -6   8   32.40    4.80 
   2  -6   8   14.10    2.70 
   2  -6   8   14.00    3.30 
   3  -6   8  110.29   11.20 
   3  -6   8  111.49   12.30 
   3  -6   8  101.19   11.20 
   4  -6   8  201.18   21.70 
   5  -6   8  105.39   12.20 
   6  -6   8    5.70    4.00 
   7  -6   8    1.40    3.40 
   8  -6   8   23.30    6.30 
   8  -6   8   30.90    5.80 
   9  -6   8   -4.90    4.30 
   9  -6   8   -1.60    3.00 
  10  -6   8   -1.40    4.30 
  10  -6   8    8.10    3.70 
  11  -6   8    3.40    4.70 
  11  -6   8    1.50    4.50 
  12  -6   8   60.09    9.40 
  12  -6   8   13.60    6.70 
 -11  -5   8   -1.90    5.50 
 -10  -5   8   -4.90    4.10 
  -8  -5   8    1.80    2.90 
  -7  -5   8   -1.40    2.50 
  -6  -5   8    5.40    2.30 
  -5  -5   8    4.50    2.10 
  -4  -5   8    4.10    2.00 
  -3  -5   8    4.70    2.80 
  -2  -5   8   38.50    4.80 
  -1  -5   8    1.00    1.70 
  -1  -5   8   -1.20    1.80 
   0  -5   8    7.60    2.10 
   0  -5   8    4.80    2.00 
   1  -5   8    2.60    1.90 
   1  -5   8    2.40    1.80 
  -2   5  -8    3.10    2.20 
   2  -5   8    0.50    1.80 
   2  -5   8    4.20    1.90 
  -3   5  -8    1.00    1.80 
   3  -5   8    0.60    1.90 
   4  -5   8   19.50    4.10 
   5  -5   8   14.70    4.30 
   6  -5   8   11.60    4.60 
   7  -5   8    7.80    4.30 
   8  -5   8   12.50    4.40 
   8  -5   8    7.30    4.50 
   9  -5   8   24.50    5.00 
   9  -5   8   21.20    5.80 
  10  -5   8    2.60    4.10 
  10  -5   8    1.70    3.90 
  11  -5   8   19.50    5.40 
 -12  -4   8   -7.80    6.30 
 -10  -4   8   -3.00    3.50 
  -9  -4   8   19.40    4.50 
  -8  -4   8    5.10    2.90 
  -7  -4   8   15.90    3.20 
  -6  -4   8   41.90    5.30 
  -5  -4   8    4.10    1.90 
  -4  -4   8   11.80    3.40 
  -3  -4   8   30.40    4.30 
  -2  -4   8    3.30    1.80 
  -2  -4   8   -1.30    1.80 
  -1  -4   8    4.10    1.80 
  -1  -4   8    6.40    2.00 
   0  -4   8   99.09   11.00 
   0  -4   8   96.19   10.50 
   1  -4   8  134.89   14.20 
   1  -4   8  136.49   14.80 
  -2   4  -8   19.80    3.10 
   2  -4   8   23.70    3.20 
   2  -4   8   23.00    3.80 
  -3   4  -8   14.00    2.30 
   3  -4   8   19.00    3.50 
   4  -4   8   61.49    7.60 
   5  -4   8    4.20    3.30 
   6  -4   8   14.90    5.50 
   7  -4   8   13.00    4.70 
   8  -4   8    1.10    4.00 
   8  -4   8   -2.50    3.70 
   9  -4   8    6.60    4.00 
   9  -4   8    5.10    4.10 
  10  -4   8    4.70    4.30 
  10  -4   8   24.60    6.10 
  11  -4   8   46.00    9.00 
 -11  -3   8   -3.40    4.10 
 -10  -3   8   -2.50    3.40 
  -9  -3   8   10.20    3.40 
  -8  -3   8   11.40    2.90 
  -7  -3   8    0.90    2.10 
  -6  -3   8   12.80    2.60 
  -5  -3   8    3.50    1.90 
  -4  -3   8    1.40    2.30 
  -3  -3   8   41.50    5.20 
  -2  -3   8    6.50    2.20 
  -2  -3   8    5.30    1.90 
  -1  -3   8   -1.50    1.40 
  -1  -3   8    0.50    2.00 
   0  -3   8   86.39    9.40 
   0  -3   8   85.99    9.70 
  -1   3  -8    4.70    1.90 
   1  -3   8   10.50    2.20 
   1  -3   8    7.90    2.10 
  -2   3  -8   -0.40    1.40 
   2  -3   8    1.50    1.80 
   2  -3   8    4.60    1.70 
   3  -3   8    3.20    1.80 
   3  -3   8    1.90    2.00 
   4  -3   8    3.90    2.50 
   5  -3   8   27.90    6.30 
   6  -3   8    8.80    5.20 
   7  -3   8    4.60    2.80 
   7  -3   8    0.50    3.60 
   8  -3   8   10.20    3.70 
   8  -3   8   21.30    5.40 
   9  -3   8   42.50    7.20 
   9  -3   8   42.40    9.40 
  11  -3   8  130.59   16.30 
 -11  -2   8   -4.20    4.10 
 -10  -2   8    5.90    3.80 
  -9  -2   8   16.20    4.00 
  -8  -2   8   16.20    3.50 
  -7  -2   8   87.09    9.80 
  -6  -2   8  101.39   11.30 
  -5  -2   8   24.00    4.50 
  -4  -2   8   66.29    7.80 
  -3  -2   8  157.38   16.50 
  -3  -2   8  148.19   16.20 
  -2  -2   8  587.34   61.89 
  -2  -2   8  632.54   62.29 
  -1  -2   8   53.19    6.90 
  -1  -2   8   65.19    6.90 
   0  -2   8   65.39    7.50 
   0  -2   8   64.99    7.30 
   1  -2   8   51.99    5.90 
   1  -2   8   48.70    6.10 
  -2   2  -8  432.96   46.30 
   2  -2   8  478.35   46.50 
   2  -2   8  462.45   47.00 
  -3   2  -8  117.19   13.10 
   3  -2   8  131.09   13.30 
   3  -2   8  130.19   14.00 
  -4   2  -8   13.60    2.70 
   4  -2   8    9.50    2.40 
   4  -2   8   10.10    3.80 
  -5   2  -8   14.70    3.60 
   5  -2   8    7.80    4.60 
  -6   2  -8   84.79    9.50 
   6  -2   8   82.79   11.00 
  -7   2  -8    8.50    3.30 
   7  -2   8    5.60    3.00 
   7  -2   8    7.40    3.50 
  -8   2  -8    0.40    2.70 
   8  -2   8   -0.40    3.00 
   8  -2   8    3.30    3.20 
   9  -2   8   12.90    4.70 
   9  -2   8    9.30    4.30 
  11  -2   8   76.09   12.60 
  -9  -1   8   46.60    6.50 
  -8  -1   8   29.40    4.50 
  -7  -1   8   11.20    2.80 
  -6  -1   8    9.30    3.10 
  -5  -1   8    4.30    2.90 
  -4  -1   8   11.00    3.00 
  -4  -1   8   10.60    2.90 
  -3  -1   8   88.39   10.10 
  -3  -1   8   93.89   10.20 
  -2  -1   8   17.80    3.00 
  -2  -1   8   16.00    3.30 
  -1  -1   8    1.40    1.50 
  -1  -1   8   -2.10    1.70 
   0  -1   8   -0.50    1.80 
   0  -1   8    1.10    1.50 
   1  -1   8   42.60    5.40 
   1  -1   8   46.70    5.60 
   2  -1   8   -0.20    1.90 
   2  -1   8    2.20    2.00 
   3  -1   8    9.90    3.50 
   3  -1   8    5.30    2.40 
   4  -1   8    5.10    2.50 
   4  -1   8    8.90    4.10 
   5  -1   8    3.20    2.50 
   5  -1   8    5.60    4.50 
  -6   1  -8   16.60    2.90 
  -6   1  -8   15.80    3.70 
   6  -1   8   15.90    4.50 
   6  -1   8   13.50    3.50 
  -7   1  -8   12.20    4.00 
   7  -1   8    7.30    2.90 
   7  -1   8   13.50    3.80 
  -8   1  -8   54.89    8.00 
   8  -1   8   76.59    8.60 
   8  -1   8   53.79    8.40 
  10  -1   8   40.90    8.70 
  11  -1   8   66.69   12.60 
 -13   0   8   -7.60    6.00 
 -12   0   8   -4.00    5.00 
 -11   0   8   -2.70    4.00 
 -10   0   8    1.00    3.30 
  -9   0   8   39.90    5.80 
  -8   0   8    9.40    3.00 
  -7   0   8   79.89    9.20 
  -6   0   8    3.00    3.60 
  -5   0   8   63.29    7.70 
  -4   0   8   13.90    3.30 
  -4   0   8    9.90    2.90 
  -3   0   8   15.30    2.90 
  -3   0   8   15.50    3.40 
  -2   0   8    3.10    1.70 
  -2   0   8    7.30    1.90 
  -1   0   8  592.64   59.49 
  -1   0   8  578.24   59.49 
   0   0   8    1.40    1.90 
   0   0   8    1.30    1.50 
   1   0   8  170.18   18.20 
   1   0   8  174.08   18.10 
   2   0   8    4.20    2.10 
   2   0   8    9.60    3.20 
   3   0   8   31.40    6.00 
   3   0   8   21.40    3.80 
   4   0   8   10.40    4.50 
   4   0   8    9.70    3.10 
   5   0   8    2.20    5.00 
   5   0   8    2.20    2.80 
  -6   0  -8   45.10    6.00 
  -6   0  -8   39.90    5.00 
   6   0   8   33.20    6.20 
   6   0   8   42.50    6.00 
  -7   0  -8   24.70    6.00 
   7   0   8   40.50    6.00 
   7   0   8   27.50    5.80 
  -8   0  -8    6.90    5.40 
   8   0   8   11.20    2.90 
  10   0   8   98.99   13.90 
 -14   1   8   -5.30    9.90 
 -13   1   8   -3.10    6.00 
 -12   1   8   -3.50    4.70 
 -11   1   8   -1.70    3.90 
 -10   1   8    4.40    3.50 
  -9   1   8   18.80    4.30 
  -8   1   8   30.90    4.90 
  -7   1   8    7.80    2.70 
  -6   1   8    8.50    3.90 
  -5   1   8   15.20    3.60 
  -5   1   8    9.90    3.00 
  -4   1   8    1.30    2.00 
  -4   1   8    2.60    1.60 
  -3   1   8   19.50    3.50 
  -3   1   8   23.40    3.30 
  -2   1   8   31.20    3.80 
  -2   1   8   25.00    4.10 
  -1   1   8   17.00    3.10 
  -1   1   8   13.50    2.90 
   0   1   8    9.50    2.60 
   0   1   8   16.10    3.60 
   1   1   8    0.30    2.10 
   1   1   8    2.00    2.80 
   2   1   8    1.30    2.30 
   2   1   8    8.50    3.20 
   3   1   8    3.00    3.60 
   3   1   8    2.20    2.50 
   4   1   8   32.30    6.90 
   4   1   8   39.90    5.40 
   5   1   8   -0.60    3.10 
   5   1   8   -2.40    3.10 
   5   1   8    0.50    2.30 
  -6  -1  -8   56.19    6.70 
  -6  -1  -8   55.69    7.70 
   6   1   8   53.79    7.20 
   6   1   8   56.09    7.80 
  -7  -1  -8   11.20    6.40 
   7   1   8    4.50    2.50 
   7   1   8   22.10    5.70 
  -8  -1  -8   -3.50    5.10 
   8   1   8    9.10    4.70 
  -9  -1  -8   15.60    6.00 
   9   1   8   57.09    9.00 
  10   1   8   65.89   12.00 
 -14   2   8    7.60    8.80 
 -13   2   8   -1.60    5.50 
  12  -2  -8   12.90    3.10 
 -12   2   8   11.70    5.10 
  11  -2  -8    7.20    2.40 
 -11   2   8    4.50    3.90 
  10  -2  -8    3.20    1.90 
 -10   2   8    2.30    3.10 
   9  -2  -8  271.67   27.80 
  -9   2   8  266.17   28.30 
   8  -2  -8  264.67   27.40 
  -8   2   8  263.07   27.70 
   7  -2  -8    3.60    1.70 
  -7   2   8    6.30    2.50 
   6  -2  -8    1.60    1.30 
  -6   2   8    1.60    3.60 
  -6   2   8    2.90    2.10 
  -5   2   8   15.80    2.70 
  -5   2   8    9.00    3.10 
  -4   2   8  415.46   41.90 
  -4   2   8  398.26   41.20 
  -3   2   8   81.19    8.70 
  -3   2   8   80.89    9.30 
  -2   2   8  320.77   33.30 
  -2   2   8  331.87   33.70 
  -1   2   8   39.70    5.30 
  -1   2   8   41.00    5.50 
   0   2   8    8.50    3.00 
   0   2   8    4.60    2.00 
   1   2   8    9.60    3.20 
   1   2   8    7.00    2.40 
   2   2   8   26.50    4.30 
   2   2   8   28.50    5.30 
   3   2   8    7.50    3.70 
   3   2   8   10.30    3.30 
   4   2   8   66.39    8.30 
   4   2   8   61.59    9.80 
   4   2   8   66.49    7.70 
   5   2   8   78.29   10.00 
   5   2   8   87.99   10.90 
  -6  -2  -8   98.29   13.70 
  -6  -2  -8   99.69   11.90 
   6   2   8  101.39   12.00 
  -7  -2  -8   10.20    4.90 
  -7  -2  -8    5.00    3.10 
  -8  -2  -8    4.60    5.60 
   8   2   8   14.00    5.10 
  10   2   8   72.09   13.70 
  14  -3  -8   -0.70    3.60 
 -14   3   8   12.60    8.20 
  13  -3  -8   -1.20    2.90 
 -13   3   8    6.00    6.30 
  12  -3  -8    4.90    2.60 
 -12   3   8   10.50    4.60 
  11  -3  -8    2.10    2.20 
 -11   3   8   10.10    3.90 
 -10   3   8    3.70    3.20 
   9  -3  -8   74.29    8.30 
  -9   3   8   74.09    9.00 
   8  -3  -8    8.10    2.50 
  -8   3   8   12.30    3.50 
   7  -3  -8    1.40    1.50 
  -7   3   8    0.90    1.70 
  -7   3   8    1.20    2.10 
   6  -3  -8    1.30    1.40 
  -6   3   8   -1.80    2.90 
   5  -3  -8    2.80    1.30 
  -5   3   8    0.70    2.60 
  -5   3   8    1.40    1.30 
  -4   3   8   -0.80    1.80 
  -4   3   8   -1.00    2.30 
  -3   3   8    7.70    2.60 
  -3   3   8   10.40    2.60 
  -2   3   8    1.80    2.40 
  -2   3   8    0.80    2.20 
  -1   3   8    2.90    2.40 
  -1   3   8    6.80    2.70 
   0   3   8    6.50    2.90 
   0   3   8    5.80    2.60 
   1   3   8   -2.40    2.40 
   2   3   8   -0.10    2.60 
   3   3   8   37.40    6.40 
   3   3   8   33.70    6.80 
   4   3   8   10.50    4.00 
   4   3   8   18.80    6.30 
   5   3   8   24.80    5.60 
   5   3   8   29.00    5.90 
  -6  -3  -8   24.20    6.40 
  -6  -3  -8   23.40    4.20 
   6   3   8   21.30    6.40 
  -7  -3  -8    1.80    5.00 
  -7  -3  -8    4.80    3.10 
   7   3   8   26.90    6.80 
  -8  -3  -8    5.90    6.00 
   8   3   8   31.80    7.70 
  14  -4  -8    5.80    3.40 
 -14   4   8   13.50    7.80 
  13  -4  -8    4.60    3.00 
 -13   4   8    4.00    5.40 
  12  -4  -8    0.20    2.30 
 -12   4   8    5.10    4.10 
  11  -4  -8   18.70    3.90 
 -11   4   8   25.50    5.30 
  10  -4  -8   -1.10    1.90 
 -10   4   8    1.50    2.90 
   9  -4  -8   24.40    3.50 
  -9   4   8   17.80    4.10 
   8  -4  -8    6.30    2.20 
  -8   4   8    2.50    2.50 
   7  -4  -8    5.70    1.70 
  -7   4   8    0.10    2.20 
   6  -4  -8   92.29    9.60 
  -6   4   8   82.19   10.50 
   5  -4  -8   55.99    6.10 
  -5   4   8   49.20    7.10 
   4  -4  -8   39.90    4.80 
  -4   4   8   35.20    5.50 
  -4   4   8   43.60    5.00 
  -3   4   8   14.30    3.30 
  -3   4   8   12.00    3.40 
  -2   4   8    6.40    2.50 
  -2   4   8    7.00    2.70 
  -1   4   8   37.00    5.20 
  -1   4   8   31.80    5.30 
   0   4   8   20.60    4.20 
   0   4   8   23.90    4.70 
   1   4   8   -3.30    2.80 
   1   4   8    2.30    3.50 
   2   4   8   -0.30    3.80 
   3   4   8   25.00    5.70 
   3   4   8   28.30    6.90 
   4   4   8   15.20    4.20 
   4   4   8   16.90    4.00 
   5   4   8   39.50    6.90 
   5   4   8   35.70    6.20 
  -6  -4  -8   45.80    6.90 
  -6  -4  -8   48.60    8.50 
   6   4   8   63.49    8.60 
  -7  -4  -8   12.30    6.20 
  -7  -4  -8   14.30    4.10 
   7   4   8   25.80    7.20 
  -8  -4  -8    7.40    7.30 
   8   4   8   13.80    5.50 
  -9  -4  -8   12.10    7.90 
   9   4   8   39.90   10.80 
  14  -5  -8    2.20    3.40 
 -14   5   8   13.00    7.20 
  13  -5  -8    7.50    3.20 
 -13   5   8   28.00    7.40 
  12  -5  -8    2.90    2.50 
 -12   5   8    6.70    3.90 
  11  -5  -8    3.10    2.20 
 -11   5   8   14.10    3.80 
  10  -5  -8   24.50    3.90 
 -10   5   8   24.20    4.80 
   9  -5  -8   27.00    4.00 
  -9   5   8   29.60    4.80 
   8  -5  -8    1.30    2.20 
  -8   5   8    0.10    2.90 
   7  -5  -8    3.40    1.70 
  -7   5   8   -0.80    2.50 
   6  -5  -8   16.30    2.80 
  -6   5   8   16.40    3.20 
   5  -5  -8   26.30    3.50 
  -5   5   8   22.40    4.90 
   4  -5  -8   -0.20    1.30 
  -4   5   8    0.30    2.20 
  -4   5   8   -0.70    3.40 
  -3   5   8   -1.20    2.70 
  -2   5   8    4.30    2.60 
  -2   5   8    5.40    3.30 
  -1   5   8   29.80    5.00 
  -1   5   8   18.20    4.60 
   0   5   8   26.40    5.00 
   0   5   8   22.00    5.00 
   1   5   8    5.30    3.10 
   2   5   8    5.70    3.60 
   2   5   8   -2.40    3.70 
   3   5   8   23.00    5.60 
   3   5   8   23.50    5.10 
   4   5   8   -0.90    3.90 
   4   5   8    1.60    3.60 
   5   5   8   18.90    5.00 
   5   5   8   14.50    4.70 
  -6  -5  -8    6.60    5.80 
  -6  -5  -8    6.00    3.60 
   6   5   8    6.90    4.10 
  -7  -5  -8    1.60    6.70 
  -7  -5  -8    0.00    4.20 
   7   5   8    9.50    5.10 
  -8  -5  -8    0.30    7.90 
   8   5   8   14.40    6.30 
 -14   6   8   43.30   10.50 
 -13   6   8   30.40    8.20 
  12  -6  -8   -0.40    2.50 
 -12   6   8    8.70    4.60 
  11  -6  -8    8.50    2.40 
  10  -6  -8   50.79    6.70 
 -10   6   8   63.99    8.00 
   9  -6  -8   79.99    8.90 
  -9   6   8   79.59    9.70 
   8  -6  -8    4.20    2.40 
  -8   6   8    2.50    2.80 
   7  -6  -8    6.50    1.80 
  -7   6   8    6.50    2.70 
   6  -6  -8   20.40    3.10 
  -6   6   8   15.60    3.70 
  -5   6   8    6.00    2.40 
   4  -6  -8   98.69    9.60 
  -4   6   8   88.49   10.20 
  -4   6   8   78.69    9.80 
   3  -6  -8  117.49   11.80 
  -3   6   8  111.39   12.40 
  -3   6   8  105.79   12.50 
  -2   6   8   60.29    7.70 
  -2   6   8   67.89    8.00 
  -1   6   8    8.30    2.70 
  -1   6   8    0.40    2.90 
   0   6   8  106.09   12.40 
   0   6   8  109.99   12.50 
   1   6   8   30.70    5.80 
   1   6   8   26.60    5.10 
   2   6   8    3.70    3.70 
   2   6   8    0.30    5.80 
   3   6   8   15.90    4.50 
   3   6   8   12.60    4.10 
   4   6   8   24.80    6.00 
   4   6   8   25.70    5.70 
   5   6   8   22.50    6.70 
  -6  -6  -8   16.40    4.70 
  -6  -6  -8   14.50    7.00 
   6   6   8   26.40    6.90 
  -7  -6  -8    1.80    7.80 
  -7  -6  -8   -0.50    4.60 
   7   6   8   10.60    5.80 
 -14   7   8   41.20   11.70 
  13  -7  -8    6.40    3.10 
 -13   7   8   13.50    6.90 
  12  -7  -8    0.80    2.50 
 -12   7   8    6.30    5.40 
  11  -7  -8    1.20    2.30 
 -11   7   8   11.30    4.30 
  10  -7  -8    2.00    2.00 
 -10   7   8    8.90    3.80 
   9  -7  -8   -2.20    1.80 
  -9   7   8   -1.00    3.00 
   8  -7  -8   -0.20    1.90 
  -8   7   8   -3.40    2.90 
   7  -7  -8    3.20    2.00 
  -7   7   8    4.50    2.80 
   6  -7  -8   13.60    3.00 
  -6   7   8   14.60    3.30 
   5  -7  -8    3.50    1.70 
  -5   7   8    0.80    2.60 
   4  -7  -8    5.40    1.90 
  -4   7   8    8.10    2.70 
   3  -7  -8   14.00    2.90 
  -3   7   8   13.00    3.30 
  -3   7   8   13.60    3.20 
  -2   7   8   -1.10    2.50 
  -2   7   8    0.90    2.70 
  -1   7   8    1.50    2.80 
  -1   7   8    2.90    3.00 
   0   7   8   -3.30    3.00 
   1   7   8   -4.70    3.80 
   1   7   8   -2.50    3.50 
   2   7   8   21.80    6.00 
   3   7   8    8.70    4.40 
   3   7   8    9.10    4.00 
   4   7   8    8.10    4.70 
   4   7   8    7.30    4.30 
  -5  -7  -8   -3.30    3.40 
  -5  -7  -8   -1.50    5.80 
   5   7   8    5.10    4.50 
  -6  -7  -8    6.10    7.40 
  -6  -7  -8    4.00    4.60 
   6   7   8   11.20    5.10 
  -7  -7  -8    1.20    6.80 
  -7  -7  -8    6.60   10.90 
   7   7   8   15.10    5.90 
  14  -8  -8    0.70    3.50 
 -14   8   8   10.20    8.20 
  13  -8  -8   -2.20    2.90 
 -13   8   8    8.70    7.00 
  12  -8  -8    0.20    2.60 
 -12   8   8   12.30    5.40 
  11  -8  -8   -3.10    2.30 
 -11   8   8    4.90    4.20 
  10  -8  -8    3.80    2.20 
 -10   8   8    6.80    4.00 
   9  -8  -8    0.90    2.10 
  -9   8   8    1.60    3.60 
   8  -8  -8   19.00    3.80 
  -8   8   8   18.70    4.30 
   7  -8  -8   12.20    2.90 
  -7   8   8   13.40    3.40 
   6  -8  -8   22.50    3.90 
  -6   8   8   27.50    4.80 
   5  -8  -8   -0.40    1.70 
   4  -8  -8    6.50    1.90 
  -4   8   8    4.70    3.10 
   3  -8  -8    0.10    1.60 
  -3   8   8   -2.10    2.80 
  -3   8   8    2.10    2.80 
  -2   8   8    7.00    3.30 
  -2   8   8    8.30    3.40 
  -1   8   8   71.69    8.90 
  -1   8   8   66.99    8.80 
   0   8   8    2.80    3.60 
   0   8   8    2.50    3.00 
   1   8   8    3.20    3.80 
   1   8   8    0.90    4.00 
   2   8   8   14.20    4.10 
   2   8   8   23.30    5.10 
   3   8   8   11.30    4.00 
   3   8   8   11.70    5.10 
   4   8   8   44.40    7.30 
   4   8   8   27.60    7.60 
  -5  -8  -8   14.20    4.40 
  -5  -8  -8    6.70    6.80 
   5   8   8    4.80    5.00 
  -6  -8  -8    7.40   10.40 
  -6  -8  -8   -3.90    6.00 
   6   8   8   -0.50    5.80 
  14  -9  -8    0.20    3.60 
 -14   9   8    8.20    8.10 
  13  -9  -8   -2.10    3.10 
 -13   9   8    3.30    7.30 
  12  -9  -8   -4.10    2.80 
 -12   9   8    7.10    6.00 
  11  -9  -8    5.90    2.80 
 -11   9   8   11.30    5.00 
  10  -9  -8    3.40    2.40 
 -10   9   8   14.00    4.30 
   9  -9  -8    4.20    2.30 
  -9   9   8    0.50    3.40 
   8  -9  -8   -0.20    2.10 
  -8   9   8    1.90    3.40 
   7  -9  -8    4.50    3.10 
  -7   9   8    8.20    3.60 
   6  -9  -8   -2.90    2.00 
  -6   9   8   -1.80    3.30 
   5  -9  -8   -0.40    2.00 
  -5   9   8    0.60    3.40 
   4  -9  -8    0.00    1.80 
  -4   9   8    2.00    3.20 
   3  -9  -8   -0.20    1.70 
  -3   9   8    2.00    3.30 
  -2   9   8    0.50    3.30 
  -2   9   8   -2.60    3.40 
  -1   9   8    1.10    3.30 
  -1   9   8   -0.20    3.70 
   0   9   8    0.20    6.20 
   0   9   8    1.50    4.30 
   1   9   8   -1.20    3.60 
   1   9   8    0.50    4.40 
   2   9   8   -0.70    4.90 
   2   9   8    7.90    4.40 
   3   9   8   11.10    4.80 
   3   9   8    5.70    5.90 
   4   9   8    6.90    5.10 
   4   9   8   -4.60    5.80 
  -5  -9  -8    3.10    8.70 
  -5  -9  -8   -3.50    5.50 
   5   9   8   -2.40    5.60 
 -14  10   8    9.00    8.80 
  13 -10  -8   -3.80    3.30 
 -13  10   8    7.00    7.10 
  12 -10  -8   -1.20    2.90 
 -12  10   8    6.70    6.30 
  11 -10  -8    9.40    3.00 
 -11  10   8    5.60    4.90 
  10 -10  -8   74.99    8.90 
 -10  10   8   71.69   10.00 
   9 -10  -8    2.40    2.40 
  -9  10   8   10.50    4.70 
   8 -10  -8    4.70    2.40 
  -8  10   8    4.50    4.20 
   7 -10  -8    2.10    3.40 
  -7  10   8    0.80    3.80 
   6 -10  -8   94.49   10.80 
  -6  10   8   91.39   11.50 
   5 -10  -8   11.70    2.50 
  -5  10   8   15.80    4.00 
   4 -10  -8   -2.10    1.90 
  -4  10   8   -0.50    3.60 
   3 -10  -8    3.10    1.90 
  -3  10   8    0.20    3.70 
  -2  10   8   -0.50    3.80 
  -1  10   8   14.60    5.00 
   0  10   8    2.70    4.60 
   0  10   8    0.40    4.20 
   1  10   8    3.90    4.10 
   1  10   8    1.70    5.10 
   2  10   8    3.20    4.50 
   2  10   8    2.20    5.30 
   3  10   8    5.00    6.60 
   3  10   8    2.50    5.10 
  -4 -10  -8   -0.70    9.10 
  -4 -10  -8    3.30    5.60 
   4  10   8    7.40    6.00 
  13 -11  -8   -3.60    3.50 
 -13  11   8    4.40    8.20 
  12 -11  -8    4.20    3.40 
 -12  11   8    9.50    7.70 
  11 -11  -8    8.70    3.30 
 -11  11   8   21.40    7.30 
  10 -11  -8   -3.40    2.70 
 -10  11   8    4.70    5.00 
   9 -11  -8   -1.40    2.60 
  -9  11   8   -0.50    4.80 
   8 -11  -8   -0.90    2.50 
  -8  11   8    3.50    4.70 
   7 -11  -8    0.40    2.70 
  -7  11   8   -0.90    3.40 
   6 -11  -8    9.80    3.50 
  -6  11   8   11.70    4.30 
   5 -11  -8    0.10    2.20 
  -5  11   8   10.80    4.20 
   4 -11  -8   -1.20    2.10 
  -4  11   8    0.70    4.10 
   3 -11  -8    0.00    2.60 
  -3  11   8    2.70    4.10 
  -2  11   8   -2.30    4.50 
  -1  11   8    2.10    5.00 
   0  11   8    0.90    5.30 
   1  11   8   -3.10    5.70 
   2  11   8    1.40    7.70 
   3  11   8    6.80    7.40 
 -13  12   8   15.00    9.60 
  12 -12  -8    0.10    3.60 
 -12  12   8    2.50    8.10 
  11 -12  -8    7.60    3.60 
 -11  12   8   21.10    8.10 
  10 -12  -8    1.90    3.10 
 -10  12   8    5.60    6.30 
   9 -12  -8   -1.40    2.80 
  -9  12   8   -0.30    5.70 
   8 -12  -8   -0.10    2.80 
  -8  12   8    6.00    4.70 
   7 -12  -8    1.70    2.80 
  -7  12   8   -2.50    4.60 
   6 -12  -8   -0.50    4.60 
  -6  12   8   -0.30    4.60 
   5 -12  -8    0.20    2.40 
  -5  12   8   -0.80    4.70 
   4 -12  -8    1.80    2.70 
  -4  12   8    1.20    4.50 
  -3  12   8   21.00    5.80 
  -2  12   8    8.40    5.60 
  -1  12   8   -1.50    5.70 
   0  12   8    1.00    6.90 
   1  12   8   17.50    8.10 
   2  12   8   15.00    8.40 
  12 -13  -8    3.20    4.00 
 -12  13   8    2.70    9.60 
  11 -13  -8    0.10    3.60 
 -11  13   8    1.50    8.70 
  10 -13  -8   -0.10    3.40 
 -10  13   8    2.20    6.80 
   9 -13  -8    1.70    3.20 
  -9  13   8    3.80    5.70 
   8 -13  -8   -2.80    3.00 
  -8  13   8    5.90    6.20 
   7 -13  -8   -4.30    3.00 
  -7  13   8    4.50    5.50 
   6 -13  -8    2.40    3.70 
  -6  13   8   -1.40    5.20 
   5 -13  -8   -4.20    3.10 
  -5  13   8    6.10    5.10 
  -4  13   8   -1.80    5.50 
  -3  13   8    6.10    6.00 
  -2  13   8    3.90    7.10 
  -1  13   8    7.50    7.80 
   0  13   8    2.10    7.00 
 -11  14   8   48.20   13.80 
  10 -14  -8    5.90    3.70 
 -10  14   8    7.40    9.60 
   9 -14  -8    2.90    3.60 
  -9  14   8   -2.40    7.60 
   8 -14  -8   -3.00    3.50 
  -8  14   8    3.00    6.90 
   7 -14  -8    9.20    3.80 
  -7  14   8   12.80    7.30 
   6 -14  -8    6.90    3.80 
  -6  14   8    4.60    6.40 
  -5  14   8    6.30    7.00 
  -4  14   8    5.30    8.10 
  -3  14   8    2.20    7.30 
  -2  14   8    0.00    7.20 
  -1  14   8   -2.20    7.70 
  -9  15   8   -0.80   10.90 
   8 -15  -8   -5.00    4.00 
  -8  15   8    2.80    8.80 
   7 -15  -8    0.50    4.20 
  -7  15   8    0.00    8.00 
  -6  15   8   -0.60    7.70 
  -5  15   8    0.40    7.30 
  -4  15   8    2.30    8.30 
   2 -16   9   -6.00    5.60 
   2 -16   9   -4.80    5.60 
   3 -16   9    5.70    5.50 
   3 -16   9   -8.20    6.70 
   4 -16   9    8.80    5.30 
   5 -16   9    5.40    5.20 
  -1 -15   9    4.70    6.10 
  -1 -15   9   -1.90    6.00 
   0 -15   9   -1.90    5.90 
   0 -15   9   -3.70    5.40 
   1 -15   9   -3.40    4.90 
   1 -15   9   -1.90    4.80 
   2 -15   9   -0.30    4.90 
   3 -15   9   -0.90    4.60 
   3 -15   9    5.80    4.80 
   4 -15   9   -1.00    4.40 
   5 -15   9    4.60    4.50 
   6 -15   9    5.20    4.60 
   7 -15   9   -2.60    4.80 
  -3 -14   9   -0.30    5.80 
  -2 -14   9   -1.50    5.30 
  -1 -14   9    5.00    5.00 
   0 -14   9   -5.60    4.60 
   0 -14   9    1.40    5.10 
   1 -14   9   14.80    4.60 
   1 -14   9   13.70    4.90 
   2 -14   9   24.00    5.70 
   2 -14   9   22.50    5.50 
   3 -14   9    3.10    4.10 
   3 -14   9   -2.00    3.70 
   4 -14   9    6.40    4.00 
   5 -14   9    1.90    3.90 
   6 -14   9   26.90    6.70 
   7 -14   9    0.40    4.10 
   8 -14   9   -1.20    4.50 
   9 -14   9   -3.40    4.70 
   9 -14   9    7.00    4.70 
  -4 -13   9   -0.10    5.50 
  -3 -13   9    9.70    5.40 
  -2 -13   9    0.80    4.40 
  -1 -13   9   -1.50    4.30 
   0 -13   9    1.20    3.90 
   0 -13   9    1.10    4.50 
   1 -13   9   -3.50    3.80 
   1 -13   9   -2.40    3.90 
   2 -13   9    3.30    3.90 
   2 -13   9   -4.40    3.40 
   3 -13   9    0.50    3.70 
   3 -13   9   -0.90    3.50 
   4 -13   9    2.10    4.90 
   4 -13   9   -4.10    3.50 
   5 -13   9   -0.50    3.60 
   6 -13   9   -3.30    3.70 
   7 -13   9   -0.20    3.80 
   8 -13   9   -4.30    4.20 
   9 -13   9    2.20    4.00 
   9 -13   9   -0.20    4.60 
  10 -13   9    3.50    4.70 
  -5 -12   9   14.80    6.60 
  -4 -12   9    5.00    4.70 
  -3 -12   9    5.00    4.30 
  -2 -12   9   -2.90    3.80 
  -1 -12   9    9.00    3.80 
   0 -12   9    0.50    3.30 
   0 -12   9    2.00    3.90 
   1 -12   9    4.20    3.40 
   1 -12   9   -2.40    3.20 
   2 -12   9   16.70    4.20 
   2 -12   9    8.70    3.70 
   3 -12   9    8.00    3.30 
   3 -12   9   12.40    5.10 
   4 -12   9    0.10    3.20 
   4 -12   9   -0.10    2.90 
   5 -12   9   -1.00    3.30 
   6 -12   9   -3.00    3.40 
   7 -12   9    0.50    3.40 
   8 -12   9    1.70    3.80 
   9 -12   9    7.10    4.00 
   9 -12   9   -4.50    4.00 
  10 -12   9   -4.10    4.20 
  -7 -11   9    1.60    5.70 
  -6 -11   9    1.70    5.70 
  -5 -11   9    2.80    4.50 
  -4 -11   9    2.30    4.20 
  -3 -11   9    0.90    3.70 
  -2 -11   9    1.20    3.50 
  -1 -11   9    1.70    3.20 
   0 -11   9   -1.10    3.00 
   0 -11   9   -0.90    3.40 
   1 -11   9    3.90    3.00 
   1 -11   9   -1.90    2.90 
   2 -11   9    2.40    4.20 
   2 -11   9   -1.00    2.90 
   3 -11   9   -0.80    2.60 
   3 -11   9    1.40    2.80 
   4 -11   9    2.20    2.80 
   5 -11   9    2.40    3.20 
   6 -11   9    2.40    3.30 
   7 -11   9    2.30    3.30 
   8 -11   9   -0.30    3.50 
   9 -11   9    0.80    3.60 
  10 -11   9    3.60    4.20 
  11 -11   9    0.30    4.60 
  -7 -10   9    1.40    5.40 
  -6 -10   9   21.90    5.50 
  -5 -10   9   43.60    7.00 
  -4 -10   9   58.09    7.90 
  -3 -10   9    2.60    3.30 
  -2 -10   9    3.40    3.00 
  -1 -10   9   16.60    3.80 
   0 -10   9  122.59   14.40 
   0 -10   9  127.29   13.80 
   1 -10   9   37.00    5.90 
   1 -10   9   37.00    7.20 
   2 -10   9   17.50    3.90 
   2 -10   9   13.50    3.60 
   3 -10   9   -2.90    2.20 
   3 -10   9    0.20    2.50 
   4 -10   9    4.80    2.40 
   4 -10   9    7.20    3.00 
   5 -10   9    1.50    2.90 
   6 -10   9    5.70    3.10 
   7 -10   9    1.10    3.00 
   8 -10   9    5.10    3.40 
   9 -10   9   10.10    3.70 
   9 -10   9   -2.00    4.00 
  10 -10   9    5.70    4.10 
  11 -10   9   -2.90    4.40 
  -8  -9   9   -3.10    5.20 
  -7  -9   9    3.40    4.50 
  -6  -9   9    2.50    4.10 
  -5  -9   9    6.30    3.60 
  -4  -9   9    1.30    3.30 
  -3  -9   9   15.40    3.70 
  -2  -9   9   13.30    3.60 
  -1  -9   9    8.10    2.90 
  -1  -9   9    7.50    3.00 
   0  -9   9    0.80    2.40 
   0  -9   9   -2.50    4.10 
   1  -9   9    0.60    2.50 
   1  -9   9    0.20    2.40 
   2  -9   9    4.50    2.40 
   2  -9   9    5.50    2.30 
   3  -9   9    0.20    2.00 
   3  -9   9    3.00    2.40 
   4  -9   9    7.30    2.80 
   5  -9   9    3.20    2.70 
   6  -9   9    6.50    3.10 
   7  -9   9   -0.60    3.00 
   8  -9   9   -3.70    3.20 
   9  -9   9    5.20    3.50 
  10  -9   9    1.80    3.90 
  11  -9   9    1.40    4.40 
  -9  -8   9   -2.70    5.20 
  -8  -8   9    0.00    4.50 
  -7  -8   9   19.10    5.20 
  -6  -8   9   -0.10    3.30 
  -5  -8   9   49.10    6.50 
  -4  -8   9   20.80    4.10 
  -3  -8   9   15.20    3.60 
  -2  -8   9   58.59    7.20 
  -1  -8   9   19.00    5.60 
  -1  -8   9   21.50    4.70 
   0  -8   9    1.80    3.00 
   0  -8   9    4.30    2.70 
   1  -8   9    2.80    2.10 
   1  -8   9    2.90    2.80 
   2  -8   9    1.90    2.90 
   2  -8   9    1.00    2.10 
   3  -8   9   -1.90    2.60 
   4  -8   9   -1.10    2.90 
   5  -8   9    0.80    2.50 
   6  -8   9    0.60    2.70 
   7  -8   9    6.40    3.10 
   9  -8   9   17.10    3.80 
   9  -8   9    1.60    4.80 
  10  -8   9    1.90    3.80 
  11  -8   9    2.30    4.70 
  -9  -7   9    2.50    5.40 
  -8  -7   9   -2.50    3.80 
  -7  -7   9   22.50    5.00 
  -6  -7   9   14.30    4.00 
  -5  -7   9    1.40    2.70 
  -4  -7   9    1.80    2.50 
  -3  -7   9    2.30    2.40 
  -2  -7   9    4.40    2.70 
  -1  -7   9    3.60    2.80 
  -1  -7   9    2.40    2.70 
   0  -7   9    2.60    2.10 
   0  -7   9    2.30    2.40 
   1  -7   9   12.50    3.60 
   1  -7   9   12.00    2.70 
   2  -7   9   -0.90    2.30 
   2  -7   9   -1.30    2.00 
   3  -7   9   19.50    4.60 
   3  -7   9   17.80    3.00 
   3  -7   9   20.50    3.50 
   4  -7   9    0.90    3.00 
   5  -7   9   -0.20    2.30 
   6  -7   9    4.70    2.70 
   7  -7   9    1.80    3.10 
   9  -7   9   11.80    3.90 
   9  -7   9   -3.10    4.80 
  10  -7   9   -3.10    3.70 
  11  -7   9   -5.90    4.90 
  11  -7   9    1.60    4.90 
 -11  -6   9    4.20    5.90 
  -9  -6   9   -2.70    3.80 
  -8  -6   9   11.80    4.00 
  -7  -6   9   66.09    8.30 
  -6  -6   9  223.78   23.80 
  -5  -6   9   21.40    3.70 
  -4  -6   9    1.40    2.20 
  -3  -6   9   15.00    3.30 
  -2  -6   9  121.39   13.90 
  -2  -6   9  119.29   13.30 
  -1  -6   9   65.29    7.40 
  -1  -6   9   63.49    8.10 
   0  -6   9    3.90    2.30 
   0  -6   9    6.40    2.20 
   1  -6   9   32.00    4.40 
   1  -6   9   29.90    4.90 
   2  -6   9   71.99    8.50 
   2  -6   9   67.29    7.80 
  -3   6  -9   -0.90    2.50 
   3  -6   9    0.40    1.60 
   3  -6   9    0.10    2.30 
   4  -6   9    3.20    2.80 
   5  -6   9    7.70    3.50 
   6  -6   9    3.90    2.90 
   7  -6   9   28.80    6.20 
   8  -6   9   28.90    7.30 
   9  -6   9   -1.50    4.70 
   9  -6   9    8.00    3.50 
  10  -6   9    0.70    4.20 
  10  -6   9   -4.10    4.50 
  11  -6   9    3.50    5.00 
  11  -6   9   -1.20    4.90 
  -9  -5   9   -4.90    3.60 
  -8  -5   9   14.10    3.80 
  -7  -5   9   25.80    4.50 
  -6  -5   9    6.40    2.50 
  -5  -5   9    2.80    2.20 
  -4  -5   9    7.00    2.50 
  -3  -5   9    0.10    3.00 
  -2  -5   9    0.50    2.30 
  -2  -5   9    2.70    2.20 
  -1  -5   9    3.30    2.10 
  -1  -5   9   -0.10    2.00 
   0  -5   9   15.70    3.20 
   0  -5   9   17.90    3.60 
   1  -5   9    3.10    1.90 
   1  -5   9    5.10    2.40 
  -2   5  -9    2.70    2.60 
   2  -5   9    6.30    2.30 
   2  -5   9    4.30    2.20 
  -3   5  -9    0.90    2.10 
   3  -5   9    0.80    1.50 
   3  -5   9    4.40    2.30 
   4  -5   9   35.80    5.70 
   5  -5   9    2.20    3.50 
   6  -5   9    0.70    2.80 
   7  -5   9   15.60    5.00 
   8  -5   9    5.00    4.30 
   8  -5   9   10.60    3.40 
   9  -5   9    6.30    4.80 
   9  -5   9    5.40    3.60 
  10  -5   9    3.40    4.50 
  10  -5   9    8.10    4.90 
  11  -5   9   41.90    7.70 
  11  -5   9    7.20    5.90 
 -10  -4   9   -4.80    3.80 
  -9  -4   9    1.80    3.30 
  -8  -4   9   -1.20    2.70 
  -7  -4   9    2.10    2.40 
  -6  -4   9    7.80    2.40 
  -5  -4   9   25.10    3.60 
  -4  -4   9   43.30    5.70 
  -3  -4   9    5.40    2.50 
  -3  -4   9    2.60    2.10 
  -2  -4   9    3.80    2.20 
  -2  -4   9    1.00    1.90 
  -1  -4   9    3.40    2.00 
  -1  -4   9    5.20    2.20 
   0  -4   9    0.80    2.20 
   0  -4   9    4.10    2.00 
   1  -4   9   47.50    6.50 
   1  -4   9   54.89    6.20 
  -2   4  -9    0.60    2.20 
   2  -4   9    4.00    2.10 
   2  -4   9    5.10    2.10 
  -3   4  -9   12.30    2.20 
   3  -4   9   11.00    3.20 
   3  -4   9   10.00    2.50 
   4  -4   9  129.99   14.70 
   5  -4   9   13.20    4.70 
   6  -4   9    2.60    3.40 
   7  -4   9   47.70    8.00 
   8  -4   9   29.80    6.90 
   8  -4   9   36.00    8.00 
   9  -4   9   17.50    4.50 
   9  -4   9   12.70    4.60 
  10  -4   9    5.60    4.30 
  10  -4   9   -0.80    4.80 
 -11  -3   9   -3.20    4.40 
 -10  -3   9   -4.30    3.70 
  -9  -3   9    4.90    3.40 
  -8  -3   9   13.30    3.20 
  -7  -3   9   19.20    3.60 
  -6  -3   9   18.80    3.40 
  -5  -3   9    4.40    2.00 
  -4  -3   9   23.70    4.80 
  -3  -3   9   28.10    4.10 
  -3  -3   9   23.30    4.20 
  -2  -3   9    0.80    2.10 
  -2  -3   9    1.70    1.80 
  -1  -3   9   14.60    3.30 
  -1  -3   9   18.00    3.20 
   0  -3   9    7.30    2.40 
   0  -3   9    6.80    2.40 
   1  -3   9    0.20    1.90 
   1  -3   9    2.70    1.90 
   2  -3   9    1.20    1.80 
   2  -3   9    1.40    1.90 
   3  -3   9    2.20    2.10 
   3  -3   9    2.90    2.30 
  -4   3  -9    6.70    2.30 
   4  -3   9   11.50    2.20 
   4  -3   9   16.70    4.50 
   5  -3   9   25.60    7.10 
   6  -3   9    1.00    3.50 
   7  -3   9   72.79    8.70 
   7  -3   9   57.79    9.10 
   8  -3   9    8.20    3.90 
   8  -3   9   10.40    4.20 
   9  -3   9   45.10    7.20 
   9  -3   9   31.10    7.70 
 -13  -2   9   -8.20    6.60 
 -12  -2   9    0.20    6.10 
 -11  -2   9   -3.80    4.10 
 -10  -2   9   -4.90    3.60 
  -9  -2   9   -0.90    3.00 
  -8  -2   9   39.00    5.50 
  -7  -2   9  146.79   15.90 
  -6  -2   9    5.10    2.30 
  -5  -2   9    4.00    2.40 
  -4  -2   9   46.90    6.40 
  -4  -2   9   45.20    6.00 
  -3  -2   9    5.10    2.50 
  -3  -2   9    1.40    1.80 
  -2  -2   9    0.70    1.70 
  -2  -2   9    3.70    2.20 
  -1  -2   9  446.16   46.70 
  -1  -2   9  462.95   46.40 
   0  -2   9    4.60    2.10 
   0  -2   9    6.20    1.90 
   1  -2   9   14.30    3.20 
   1  -2   9   16.90    3.20 
   2  -2   9   -2.30    2.20 
   2  -2   9    1.20    2.00 
   3  -2   9   54.79    6.60 
   3  -2   9   60.29    7.80 
  -4   2  -9   25.50    5.00 
   4  -2   9   24.90    6.20 
   4  -2   9   19.40    3.50 
   5  -2   9   10.60    5.30 
   5  -2   9    8.80    2.60 
  -6   2  -9   15.30    4.10 
   6  -2   9   11.50    4.20 
  -7   2  -9  118.99   12.40 
   7  -2   9  116.69   13.00 
   7  -2   9  106.99   13.30 
   8  -2   9   29.50    5.70 
   8  -2   9   18.80    4.80 
   9  -2   9    8.70    5.70 
   9  -2   9   32.60    7.00 
  11  -2   9   99.19   14.70 
 -12  -1   9   -5.10    5.40 
 -10  -1   9   -1.70    3.30 
  -9  -1   9   17.10    4.20 
  -8  -1   9    9.60    3.10 
  -7  -1   9   32.70    4.80 
  -6  -1   9   15.90    3.50 
  -5  -1   9   16.50    4.50 
  -4  -1   9    1.90    2.70 
  -4  -1   9    2.90    2.00 
  -3  -1   9   16.00    3.00 
  -3  -1   9   16.30    3.50 
  -2  -1   9    2.10    1.70 
  -2  -1   9    3.80    2.30 
  -1  -1   9    3.10    1.80 
  -1  -1   9   -0.40    1.90 
   0  -1   9   33.70    4.50 
   0  -1   9   32.60    4.50 
   1  -1   9   55.39    6.60 
   1  -1   9   49.20    6.30 
   2  -1   9    2.20    2.30 
   2  -1   9    3.00    2.70 
   3  -1   9    6.10    4.00 
   3  -1   9    1.60    2.50 
   4  -1   9    4.50    4.40 
   4  -1   9    1.30    2.70 
   5  -1   9   78.09   10.50 
   5  -1   9   73.29    8.50 
  -6   1  -9   37.80    5.30 
  -6   1  -9   44.00    6.40 
   6  -1   9   46.70    6.70 
  -7   1  -9   39.40    6.50 
   7  -1   9   44.10    6.70 
   7  -1   9   44.40    6.30 
  -8   1  -9    5.70    3.90 
   8  -1   9    3.80    3.50 
   9  -1   9   55.09    9.70 
  10  -1   9   66.99   11.50 
 -13   0   9    1.80    7.00 
 -12   0   9   -4.20    5.10 
 -11   0   9    8.90    4.60 
 -10   0   9    9.70    4.10 
  -9   0   9   -2.50    2.80 
  -8   0   9    7.00    2.90 
  -7   0   9    6.50    2.70 
  -6   0   9   86.49   10.00 
  -5   0   9  167.08   17.30 
  -5   0   9  156.08   17.50 
  -4   0   9   78.59    8.60 
  -4   0   9   71.79    8.80 
  -3   0   9    6.50    2.60 
  -3   0   9    5.30    1.90 
  -2   0   9   60.59    6.90 
  -2   0   9   58.19    7.00 
  -1   0   9  169.18   17.90 
  -1   0   9  169.38   17.80 
   0   0   9   33.80    4.60 
   0   0   9   32.50    4.50 
   1   0   9   19.10    3.90 
   1   0   9   12.10    3.40 
   2   0   9    4.70    3.30 
   2   0   9   -1.90    2.20 
   3   0   9   14.40    3.80 
   3   0   9   25.80    6.40 
   4   0   9   28.50    7.20 
   4   0   9   25.30    4.70 
   5   0   9  153.08   15.90 
   5   0   9  145.19   16.90 
  -6   0  -9   24.10    5.40 
  -6   0  -9   23.40    3.60 
   6   0   9   22.40    4.80 
   6   0   9   23.50    5.30 
  -7   0  -9   23.80    6.30 
   7   0   9   31.30    6.00 
   7   0   9   19.00    4.30 
  -8   0  -9    5.30    5.30 
   9   0   9   57.99   10.20 
  10   0   9  121.09   16.20 
 -13   1   9   -0.10    5.60 
 -12   1   9   -4.30    4.50 
 -11   1   9   -3.10    3.80 
 -10   1   9    2.10    3.30 
  -9   1   9   -2.90    2.70 
  -8   1   9   50.59    6.60 
  -7   1   9    0.00    2.20 
  -6   1   9    2.00    2.60 
  -6   1   9    4.00    2.70 
  -5   1   9   33.90    4.70 
  -5   1   9   31.60    5.50 
  -4   1   9   -0.70    2.20 
  -4   1   9    1.00    1.60 
  -3   1   9   -0.80    2.10 
  -3   1   9   -0.50    1.50 
  -2   1   9   10.50    3.00 
  -2   1   9   13.20    2.70 
  -1   1   9   52.99    6.60 
  -1   1   9   55.59    6.60 
   0   1   9   29.70    4.70 
   0   1   9   19.00    3.80 
   1   1   9    6.10    3.20 
   1   1   9    5.30    2.50 
   2   1   9   13.30    3.50 
   2   1   9   21.50    5.50 
   3   1   9   13.60    3.60 
   3   1   9   13.50    4.70 
   4   1   9   77.79    9.20 
   4   1   9   76.29   10.90 
   5   1   9   18.50    3.70 
   5   1   9   21.80    4.80 
   5   1   9   16.80    3.90 
  -6  -1  -9   72.69   10.40 
  -6  -1  -9   72.99    8.70 
   6   1   9   79.89    9.50 
   6   1   9   65.89    8.60 
  -7  -1  -9    5.20    4.50 
  -7  -1  -9    7.90    7.40 
   7   1   9    3.20    3.50 
   7   1   9    9.60    4.30 
  -8  -1  -9    8.10    5.70 
   8   1   9   40.80    7.80 
   9   1   9   44.30    9.30 
  10   1   9   65.59   13.00 
 -14   2   9    6.10    9.90 
 -13   2   9    2.30    5.40 
 -12   2   9    6.50    4.70 
 -11   2   9    8.80    3.90 
 -10   2   9   39.90    6.10 
  -9   2   9   29.10    4.90 
  -8   2   9  210.68   22.40 
  -7   2   9    4.60    2.60 
  -7   2   9    5.30    2.70 
  -6   2   9    1.80    2.10 
  -6   2   9    2.10    2.40 
  -5   2   9   82.89    9.90 
  -5   2   9   79.59    9.00 
  -4   2   9  223.08   22.90 
  -4   2   9  208.88   22.20 
  -3   2   9  212.38   22.30 
  -3   2   9  220.28   22.90 
  -2   2   9  224.98   23.90 
  -2   2   9  229.58   23.60 
  -1   2   9   18.70    3.90 
  -1   2   9   29.50    4.90 
   0   2   9    5.60    3.00 
   0   2   9    2.20    2.40 
   1   2   9    9.80    3.70 
   1   2   9    5.70    2.40 
   2   2   9   98.39   10.90 
   2   2   9   90.79   11.50 
   3   2   9    3.80    3.40 
   3   2   9    3.60    4.00 
   4   2   9   18.60    5.50 
   4   2   9   17.00    4.20 
   5   2   9    6.30    3.50 
   5   2   9    5.90    6.60 
  -6  -2  -9   28.40    6.90 
  -6  -2  -9   23.90    5.10 
   6   2   9   35.00    6.50 
  -7  -2  -9    2.40    5.30 
  -7  -2  -9    0.70    3.30 
 -14   3   9   10.10    8.80 
  13  -3  -9    0.80    3.00 
 -13   3   9    5.00    5.70 
  12  -3  -9    1.40    2.60 
 -12   3   9    6.90    4.80 
  11  -3  -9   -0.60    2.20 
 -11   3   9   -0.10    3.70 
  10  -3  -9   16.80    3.60 
 -10   3   9   24.20    4.90 
   9  -3  -9    0.10    1.70 
  -9   3   9   -0.90    2.60 
   8  -3  -9    8.50    2.70 
  -8   3   9   11.00    2.90 
  -8   3   9   11.80    3.50 
   7  -3  -9    7.30    2.00 
  -7   3   9    6.00    1.80 
  -7   3   9    4.20    2.30 
   6  -3  -9    0.80    1.50 
  -6   3   9    1.00    1.40 
  -6   3   9   -2.40    2.00 
  -5   3   9   45.10    6.80 
  -5   3   9   44.20    5.40 
  -4   3   9   22.70    4.60 
  -4   3   9   27.80    4.50 
  -3   3   9   -2.40    2.30 
  -3   3   9    1.60    2.60 
  -2   3   9    1.80    2.50 
  -2   3   9    3.70    2.70 
  -1   3   9    3.40    2.70 
  -1   3   9   -2.80    2.40 
   0   3   9   37.50    5.80 
   0   3   9   44.30    6.30 
   1   3   9   -2.40    2.60 
   1   3   9   -2.30    2.80 
   2   3   9   -1.60    3.80 
   2   3   9   -3.20    2.90 
   3   3   9   47.80    9.60 
   3   3   9   60.19    9.10 
   4   3   9   35.90    6.50 
   4   3   9   24.90    5.30 
   5   3   9   48.70    7.10 
   5   3   9   36.70    6.50 
  -6  -3  -9    5.10    3.50 
  -6  -3  -9    7.30    5.70 
   6   3   9   11.30    4.80 
  -7  -3  -9   -1.00    6.20 
  -7  -3  -9    6.80    4.00 
   7   3   9   10.60    4.90 
   8   3   9   47.20   10.10 
   9   3   9   50.19   12.30 
  14  -4  -9    0.40    3.30 
 -14   4   9   10.60    8.00 
  13  -4  -9   -1.70    2.90 
 -13   4   9    5.20    5.30 
  12  -4  -9   -2.40    2.50 
 -12   4   9    6.20    4.50 
  11  -4  -9   -1.50    2.10 
 -11   4   9    5.90    3.90 
  10  -4  -9    7.20    2.20 
 -10   4   9   17.30    4.40 
   9  -4  -9   64.59    7.10 
  -9   4   9   58.39    7.70 
   8  -4  -9    3.20    2.00 
  -8   4   9    4.00    2.50 
   7  -4  -9   -0.20    1.80 
   6  -4  -9   28.10    3.60 
  -6   4   9   19.10    4.10 
   5  -4  -9    3.20    1.50 
  -5   4   9    0.30    2.50 
  -4   4   9   46.30    6.70 
  -4   4   9   48.00    6.00 
  -3   4   9    0.60    2.90 
  -3   4   9    2.60    2.40 
  -2   4   9   -2.20    2.30 
  -2   4   9    0.10    3.20 
  -1   4   9    9.10    3.70 
  -1   4   9    7.70    3.00 
   0   4   9  195.38   21.60 
   0   4   9  199.38   21.20 
   1   4   9    3.80    4.10 
   2   4   9   23.40    6.30 
   2   4   9   27.90    5.30 
   3   4   9   24.30    6.30 
   3   4   9   29.10    5.50 
   4   4   9  159.98   17.00 
   4   4   9  139.49   16.60 
   5   4   9    0.50    4.10 
   5   4   9    2.40    4.00 
  -6  -4  -9   -2.00    5.80 
  -6  -4  -9    6.20    3.70 
  -7  -4  -9    1.10    4.30 
  -7  -4  -9    6.80    7.30 
  -8  -4  -9   12.20    8.10 
   8   4   9   47.90    9.40 
 -14   5   9   38.40   10.50 
 -13   5   9   13.70    6.10 
  12  -5  -9   -0.50    2.40 
 -12   5   9    5.60    4.20 
  11  -5  -9    5.20    2.20 
 -11   5   9    8.60    4.00 
  10  -5  -9    1.00    2.00 
 -10   5   9    7.50    3.30 
   9  -5  -9    3.10    1.80 
  -9   5   9    1.00    3.10 
   8  -5  -9    1.00    1.80 
  -8   5   9   -3.70    2.80 
   7  -5  -9    0.10    1.70 
  -7   5   9    0.80    2.60 
   6  -5  -9   58.89    6.30 
  -6   5   9   47.40    6.60 
   5  -5  -9    1.70    1.50 
  -5   5   9    1.50    1.60 
  -5   5   9    0.20    2.30 
  -4   5   9    8.50    2.70 
  -4   5   9    5.10    2.50 
  -3   5   9    6.60    2.60 
  -3   5   9    3.80    3.00 
  -2   5   9   -1.60    2.50 
  -1   5   9    2.30    2.30 
  -1   5   9   -2.50    2.90 
   0   5   9   34.00    5.30 
   0   5   9   30.30    5.90 
   1   5   9    4.10    4.00 
   1   5   9   14.30    3.70 
   2   5   9   58.19   10.40 
   2   5   9   62.89    8.20 
   3   5   9   11.40    4.20 
   3   5   9   13.80    4.40 
   4   5   9   23.80    6.30 
   4   5   9   15.30    4.70 
   5   5   9   -0.20    4.90 
   5   5   9    4.40    4.50 
  -6  -5  -9    8.80    4.20 
  -6  -5  -9    3.80    6.50 
  -7  -5  -9   -1.30    7.50 
  -7  -5  -9   -0.50    4.70 
  -8  -5  -9   -0.50    8.50 
  14  -6  -9   -0.10    3.40 
 -14   6   9   12.30    8.00 
  13  -6  -9    0.00    2.90 
 -13   6   9    7.70    6.20 
  12  -6  -9    3.20    2.60 
 -12   6   9   12.00    5.10 
  11  -6  -9    4.60    2.30 
 -11   6   9    8.30    4.40 
  10  -6  -9  125.19   13.30 
 -10   6   9  120.69   14.20 
   9  -6  -9  357.36   37.40 
  -9   6   9  368.06   38.00 
   8  -6  -9   32.60    4.30 
  -8   6   9   22.60    5.10 
   7  -6  -9    1.40    1.90 
  -7   6   9    1.70    2.60 
   6  -6  -9   23.60    3.40 
  -6   6   9   17.10    4.00 
   5  -6  -9  188.18   18.50 
   5  -6  -9  167.58   18.40 
  -5   6   9  175.08   19.10 
   4  -6  -9   94.89    9.60 
  -4   6   9   86.49   10.00 
  -4   6   9   83.29   10.20 
  -3   6   9   13.30    3.80 
  -3   6   9   15.10    3.70 
  -2   6   9    1.10    3.40 
  -2   6   9    4.60    2.90 
  -1   6   9   -1.90    2.90 
   0   6   9    8.80    3.60 
   0   6   9    8.20    3.50 
   1   6   9    4.00    3.50 
   1   6   9    2.70    4.10 
   2   6   9  121.89   14.00 
   2   6   9  102.99   13.10 
   3   6   9   27.40    6.30 
   3   6   9   33.40    6.80 
   4   6   9   -0.90    4.50 
   4   6   9    2.30    3.90 
   5   6   9    1.50    5.10 
   5   6   9    5.60    4.60 
  -6  -6  -9   11.50    7.80 
  -6  -6  -9    5.60    5.10 
   6   6   9   29.50    8.30 
  -7  -6  -9   -2.70    5.30 
  -7  -6  -9   -2.90    8.30 
 -14   7   9   51.59   12.70 
  13  -7  -9    0.50    3.00 
 -13   7   9   13.70    7.40 
  12  -7  -9   -0.10    2.60 
 -12   7   9   13.70    5.60 
  11  -7  -9    5.10    2.50 
 -11   7   9   17.40    5.00 
  10  -7  -9   17.80    3.80 
 -10   7   9   23.70    5.40 
   9  -7  -9    6.60    2.10 
  -9   7   9    3.10    3.30 
   8  -7  -9    8.60    2.30 
  -8   7   9    3.70    3.20 
   7  -7  -9   -0.30    2.30 
  -7   7   9   -2.90    2.90 
   6  -7  -9   31.50    4.40 
  -6   7   9   28.80    4.60 
   5  -7  -9    0.10    1.70 
  -5   7   9   -0.60    2.80 
   4  -7  -9    0.80    1.90 
  -4   7   9    5.20    3.10 
  -4   7   9    1.70    3.00 
  -3   7   9    8.70    3.00 
  -3   7   9   10.40    3.40 
  -2   7   9    2.80    3.00 
  -2   7   9    1.10    3.20 
  -1   7   9   11.30    3.50 
  -1   7   9    6.10    3.40 
   0   7   9   -0.10    3.40 
   1   7   9    5.90    4.10 
   1   7   9    6.70    6.40 
   2   7   9   17.40    5.10 
   2   7   9   23.60    6.10 
   3   7   9    4.50    4.80 
   3   7   9   25.80    6.40 
   4   7   9    8.60    4.80 
   4   7   9   -1.40    4.90 
   5   7   9   34.80    8.50 
  -6  -7  -9    5.60    5.50 
  -6  -7  -9    6.60    8.40 
   6   7   9   10.70    5.80 
  14  -8  -9   -0.30    3.70 
 -14   8   9    9.60    8.00 
  13  -8  -9   -0.30    3.10 
 -13   8   9   13.70    7.00 
  12  -8  -9    4.50    2.90 
 -12   8   9    7.90    5.40 
  11  -8  -9    2.00    2.50 
 -11   8   9    3.70    4.20 
  10  -8  -9   37.50    5.80 
 -10   8   9   50.99    7.30 
  -9   8   9   17.90    4.80 
   8  -8  -9    2.70    2.10 
  -8   8   9    0.70    3.30 
   7  -8  -9   94.29   10.90 
  -7   8   9   89.99   10.90 
   6  -8  -9    1.00    2.10 
  -6   8   9    0.00    3.20 
   5  -8  -9   -1.60    1.80 
  -5   8   9   -1.80    3.10 
   4  -8  -9   24.50    3.80 
  -4   8   9   21.60    4.40 
  -3   8   9   57.39    7.60 
  -3   8   9   53.89    7.30 
  -2   8   9   91.69   11.40 
  -2   8   9   99.99   11.30 
  -1   8   9   28.80    5.60 
  -1   8   9   34.00    5.80 
   0   8   9    3.50    3.90 
   0   8   9    3.10    4.50 
   1   8   9    1.80    3.80 
   1   8   9    2.20    4.40 
   2   8   9   45.10    7.50 
   2   8   9   39.80    7.70 
   3   8   9   -4.60    5.10 
   3   8   9    3.10    4.30 
   4   8   9    7.60    4.60 
   4   8   9   11.00    5.80 
  -5  -8  -9   23.90    9.00 
  -5  -8  -9   14.00    5.70 
   5   8   9   25.70    7.60 
  14  -9  -9   -2.80    3.80 
 -14   9   9    7.50    8.50 
  13  -9  -9    2.50    3.40 
 -13   9   9   11.60    7.50 
  12  -9  -9    6.50    3.00 
 -12   9   9   11.40    6.70 
  11  -9  -9    6.60    2.80 
 -11   9   9   12.10    5.20 
  10  -9  -9   18.30    4.40 
 -10   9   9   24.60    6.00 
   9  -9  -9    3.90    2.30 
  -9   9   9    3.10    3.70 
   8  -9  -9    2.50    2.20 
  -8   9   9    3.10    3.60 
   7  -9  -9    2.00    3.50 
  -7   9   9    3.10    3.80 
   6  -9  -9    7.60    2.80 
  -6   9   9   14.60    3.90 
   5  -9  -9    4.10    2.10 
  -5   9   9    8.30    3.60 
   4  -9  -9    6.20    2.10 
  -4   9   9    4.50    3.30 
  -3   9   9    1.40    3.50 
  -2   9   9   16.50    4.60 
  -2   9   9   17.00    4.10 
  -1   9   9   -0.60    4.40 
  -1   9   9    2.30    4.00 
   0   9   9    3.40    4.10 
   0   9   9   -2.40    4.60 
   1   9   9    8.80    5.30 
   1   9   9    5.90    4.20 
   2   9   9    2.20    5.40 
   2   9   9    8.60    4.40 
   3   9   9   13.10    5.00 
   3   9   9    7.70    6.00 
   4   9   9    4.80    7.00 
   4   9   9   11.40    5.70 
  13 -10  -9    2.00    3.40 
 -13  10   9   13.00    8.30 
  12 -10  -9   -2.50    3.00 
 -12  10   9    5.90    7.00 
  11 -10  -9  109.59   12.40 
 -11  10   9  108.09   13.60 
  10 -10  -9   36.90    5.60 
 -10  10   9   37.10    7.70 
   9 -10  -9   11.70    2.70 
  -9  10   9   11.70    5.00 
   8 -10  -9    4.10    2.30 
  -8  10   9    6.90    4.30 
   7 -10  -9    2.40    3.00 
  -7  10   9   -1.00    4.00 
   6 -10  -9   13.10    3.80 
  -6  10   9   22.20    5.10 
   5 -10  -9   53.09    6.20 
  -5  10   9   48.80    7.50 
   4 -10  -9    4.90    2.20 
  -4  10   9    6.00    3.90 
  -3  10   9   -2.50    4.10 
  -2  10   9    0.00    4.20 
  -1  10   9    7.80    5.70 
  -1  10   9    4.70    4.60 
   0  10   9   16.20    5.50 
   0  10   9    9.10    4.50 
   1  10   9   10.90    4.90 
   1  10   9   22.60    6.70 
   2  10   9    6.50    5.00 
   2  10   9    4.00    6.10 
   3  10   9   -4.80    7.40 
   3  10   9    1.40    5.40 
  13 -11  -9   -0.90    3.80 
 -13  11   9    2.30    8.30 
  12 -11  -9    1.60    3.30 
 -12  11   9    7.80    7.60 
  11 -11  -9    0.80    3.10 
 -11  11   9    1.20    6.30 
  10 -11  -9   -1.20    2.90 
 -10  11   9    5.20    5.20 
   9 -11  -9   -0.10    2.70 
  -9  11   9    6.10    5.20 
   8 -11  -9    1.40    2.50 
  -8  11   9    7.10    5.20 
   7 -11  -9   -1.80    2.50 
  -7  11   9   -0.90    3.50 
   6 -11  -9    3.30    3.50 
  -6  11   9    2.90    4.30 
   5 -11  -9    0.80    2.40 
  -5  11   9   -1.30    4.30 
   4 -11  -9   -2.90    2.30 
  -4  11   9    1.10    4.70 
  -3  11   9    4.50    4.50 
  -2  11   9    0.30    4.70 
  -1  11   9   -0.80    5.30 
   0  11   9    3.60    5.90 
   1  11   9   -1.20    7.00 
   2  11   9    5.40    7.80 
   2  11   9    5.70    5.90 
  12 -12  -9   -0.30    3.80 
 -12  12   9    1.60    8.50 
  11 -12  -9   -0.70    3.40 
 -11  12   9    5.40    7.50 
  10 -12  -9    3.10    3.10 
 -10  12   9   12.40    6.50 
   9 -12  -9    0.80    3.10 
  -9  12   9    2.00    5.90 
   8 -12  -9    2.80    2.60 
  -8  12   9    2.50    5.00 
   7 -12  -9    2.30    2.90 
  -7  12   9    2.40    4.90 
   6 -12  -9   -2.40    4.50 
  -6  12   9    3.90    5.10 
   5 -12  -9   13.30    3.30 
  -5  12   9   25.50    5.90 
  -4  12   9   31.10    7.10 
  -3  12   9   13.60    5.80 
  -2  12   9   20.70    7.30 
  -1  12   9    9.40    7.60 
   0  12   9    0.60    7.70 
   1  12   9   -4.90    7.20 
  11 -13  -9   -2.20    3.70 
 -11  13   9    9.40   10.30 
  10 -13  -9    2.40    3.50 
 -10  13   9    1.80    6.00 
   9 -13  -9   -1.10    3.30 
  -9  13   9    5.80    6.20 
   8 -13  -9   -1.20    2.90 
  -8  13   9    4.00    6.00 
   7 -13  -9   -2.40    3.00 
  -7  13   9   -1.20    5.70 
   6 -13  -9    6.20    3.80 
  -6  13   9    4.30    5.70 
  -5  13   9    0.70    5.40 
  -4  13   9    6.70    6.50 
  -3  13   9    5.20    7.40 
  -2  13   9   -2.20    7.60 
  -1  13   9   -3.40    7.40 
  10 -14  -9    1.00    3.90 
 -10  14   9   -5.20   10.40 
   9 -14  -9    2.50    3.80 
  -9  14   9   -3.40    8.80 
   8 -14  -9   -4.70    3.40 
  -8  14   9   -0.30    9.20 
   7 -14  -9    5.30    3.60 
  -7  14   9    8.70    8.60 
  -6  14   9    9.20    7.70 
  -5  14   9    3.10    7.20 
  -4  14   9   -1.80    7.30 
  -3  14   9   -0.50    7.60 
  -2  14   9    6.60    8.50 
  -7  15   9    2.80    7.80 
  -6  15   9   -1.10    7.40 
   0 -15  10    3.00    5.30 
   0 -15  10    0.30    5.60 
   1 -15  10   -1.20    5.20 
   1 -15  10    1.70    5.00 
   2 -15  10   -4.10    4.90 
   2 -15  10    1.80    4.90 
   3 -15  10    2.30    4.80 
   4 -15  10    1.10    4.60 
   5 -15  10    1.80    4.70 
   6 -15  10    3.50    4.80 
   7 -15  10   -5.50    5.00 
  -2 -14  10    5.90    6.00 
  -1 -14  10   -1.00    5.00 
  -1 -14  10    0.80    4.70 
   0 -14  10    3.20    4.50 
   0 -14  10   -3.10    5.00 
   1 -14  10   18.70    5.00 
   1 -14  10   18.50    5.50 
   2 -14  10    2.80    4.30 
   2 -14  10    1.50    4.30 
   3 -14  10    8.20    4.40 
   3 -14  10   11.90    4.50 
   4 -14  10   -3.30    4.20 
   5 -14  10    0.00    4.10 
   6 -14  10    0.70    4.30 
   7 -14  10    6.40    4.70 
   8 -14  10    2.20    5.10 
  -4 -13  10   -5.30    5.80 
  -3 -13  10    0.60    5.30 
  -2 -13  10    1.00    4.60 
  -1 -13  10    3.70    4.40 
  -1 -13  10   -2.90    4.30 
   0 -13  10   -5.00    3.90 
   0 -13  10    2.80    4.30 
   1 -13  10    6.50    4.20 
   1 -13  10    7.00    4.00 
   2 -13  10    4.30    3.70 
   2 -13  10   -0.80    3.80 
   3 -13  10   -0.50    3.60 
   3 -13  10   -1.90    3.70 
   4 -13  10    0.90    3.60 
   5 -13  10   -0.80    3.90 
   6 -13  10    1.50    4.00 
   7 -13  10   -3.20    3.80 
   8 -13  10   -5.40    4.30 
   9 -13  10    9.20    4.70 
   9 -13  10    7.40    5.00 
  -5 -12  10    4.50    5.70 
  -4 -12  10    6.20    5.10 
  -3 -12  10    2.90    4.60 
  -2 -12  10    2.20    4.00 
  -1 -12  10    8.40    4.10 
  -1 -12  10    3.50    4.00 
   0 -12  10    0.90    3.80 
   0 -12  10   12.40    3.60 
   1 -12  10    0.30    3.40 
   1 -12  10   -0.60    3.50 
   2 -12  10   13.10    3.90 
   2 -12  10   13.30    3.90 
   3 -12  10    2.70    3.30 
   3 -12  10   -2.70    4.70 
   4 -12  10    0.00    3.20 
   5 -12  10   16.70    4.30 
   6 -12  10    4.20    3.70 
   7 -12  10    0.70    3.60 
   8 -12  10    0.30    3.90 
   9 -12  10   12.30    4.90 
  10 -12  10   10.30    5.10 
  -6 -11  10   -1.50    5.60 
  -5 -11  10    3.20    4.80 
  -4 -11  10    9.30    4.40 
  -3 -11  10    0.30    3.70 
  -2 -11  10    4.20    3.60 
  -1 -11  10    0.30    3.30 
  -1 -11  10    7.70    3.60 
   0 -11  10   -2.80    3.10 
   0 -11  10   -2.70    3.20 
   1 -11  10   -2.30    3.00 
   1 -11  10    0.30    3.00 
   2 -11  10   -2.00    2.90 
   2 -11  10    3.70    4.70 
   3 -11  10   -1.50    2.60 
   3 -11  10    0.00    3.00 
   4 -11  10    0.50    3.00 
   5 -11  10    3.30    3.20 
   6 -11  10    7.30    3.40 
   7 -11  10   22.80    5.50 
   8 -11  10   -0.40    3.70 
   9 -11  10   -1.10    4.40 
  10 -11  10    7.30    4.50 
  -7 -10  10   -1.60    5.60 
  -6 -10  10    3.50    4.90 
  -5 -10  10   59.19    8.20 
  -4 -10  10    6.10    3.90 
  -3 -10  10    0.10    3.30 
  -2 -10  10   16.20    3.80 
  -1 -10  10    4.70    3.20 
  -1 -10  10   -1.00    2.90 
   0 -10  10    5.70    3.10 
   0 -10  10    7.90    2.90 
   1 -10  10   48.50    8.10 
   1 -10  10   51.19    7.00 
   2 -10  10   -0.60    2.60 
   2 -10  10   -2.40    2.50 
   3 -10  10    8.00    2.90 
   3 -10  10    5.50    2.50 
   4 -10  10   11.90    3.30 
   5 -10  10   83.29   10.30 
   6 -10  10    0.80    3.00 
   7 -10  10    0.90    3.40 
   9 -10  10   -2.60    4.40 
   9 -10  10   11.20    4.10 
  10 -10  10    3.00    4.50 
  -8  -9  10   -3.20    5.20 
  -7  -9  10   -4.10    4.70 
  -6  -9  10   -1.70    4.00 
  -5  -9  10   -0.80    3.70 
  -4  -9  10    3.40    3.30 
  -3  -9  10    3.20    3.00 
  -2  -9  10    6.80    3.00 
  -2  -9  10    9.30    3.10 
  -1  -9  10    4.40    3.00 
  -1  -9  10   10.70    3.10 
   0  -9  10    2.00    4.00 
   0  -9  10    0.20    2.60 
   1  -9  10   -0.40    2.50 
   1  -9  10   -1.70    3.00 
   2  -9  10   -1.90    2.10 
   2  -9  10   -0.60    2.40 
   3  -9  10    1.80    2.40 
   4  -9  10    4.40    2.20 
   4  -9  10    6.10    2.80 
   5  -9  10    1.40    2.60 
   6  -9  10   -2.40    2.80 
   7  -9  10    8.00    3.40 
   8  -9  10    5.70    3.90 
   9  -9  10   -4.00    4.60 
   9  -9  10   13.00    3.90 
  10  -9  10   -1.10    4.50 
  11  -9  10   -0.70    4.90 
  -9  -8  10   -3.70    5.30 
  -8  -8  10    3.20    5.40 
  -7  -8  10    1.90    4.00 
  -6  -8  10    9.80    3.70 
  -5  -8  10    3.50    3.30 
  -4  -8  10   -2.60    2.90 
  -3  -8  10    0.00    2.80 
  -2  -8  10    0.30    2.60 
  -2  -8  10   -0.90    2.50 
  -1  -8  10   -3.20    2.40 
  -1  -8  10    0.40    2.90 
   0  -8  10    0.50    2.60 
   0  -8  10    4.20    3.30 
   1  -8  10    5.10    2.50 
   1  -8  10    3.40    2.50 
   2  -8  10    0.10    2.10 
   2  -8  10    4.50    2.40 
   3  -8  10   20.20    3.50 
   4  -8  10   18.00    4.00 
   5  -8  10    7.40    2.90 
   6  -8  10    1.30    2.80 
   7  -8  10    9.60    3.80 
   8  -8  10   -0.90    3.80 
   9  -8  10   -3.10    4.90 
   9  -8  10    9.00    3.70 
  10  -8  10    6.50    4.30 
  11  -8  10   -3.20    5.40 
  -9  -7  10    1.90    6.10 
  -8  -7  10    1.90    4.10 
  -7  -7  10   -2.40    3.40 
  -6  -7  10    3.70    3.20 
  -5  -7  10   -2.90    2.70 
  -4  -7  10    2.90    2.60 
  -3  -7  10   18.60    3.70 
  -2  -7  10    3.00    3.70 
  -2  -7  10    1.10    2.50 
  -1  -7  10   -0.40    3.00 
  -1  -7  10    2.40    3.40 
   0  -7  10    1.00    2.70 
   0  -7  10    1.30    2.40 
   1  -7  10    2.50    2.80 
   1  -7  10    2.10    2.50 
   2  -7  10    0.10    2.80 
   2  -7  10    1.70    2.30 
   3  -7  10    5.00    2.90 
   3  -7  10   -1.10    3.20 
   3  -7  10    7.50    2.30 
   4  -7  10    0.80    2.20 
   5  -7  10    0.30    2.50 
   6  -7  10    9.30    3.10 
   7  -7  10   -2.10    3.00 
   8  -7  10   -1.60    4.40 
   9  -7  10    9.60    4.00 
  10  -7  10    3.60    4.40 
  11  -7  10   -2.00    5.60 
  11  -7  10   -0.30    5.30 
  -9  -6  10    3.20    4.20 
  -8  -6  10    0.10    3.60 
  -7  -6  10   -3.70    3.20 
  -6  -6  10   62.19    7.80 
  -5  -6  10   74.69    8.90 
  -4  -6  10   36.30    5.10 
  -3  -6  10   28.40    4.40 
  -2  -6  10   34.00    5.50 
  -2  -6  10   27.00    5.50 
  -1  -6  10  124.49   13.50 
  -1  -6  10  123.79   14.30 
   0  -6  10   18.10    3.50 
   0  -6  10   16.00    3.90 
   1  -6  10    4.90    2.60 
   1  -6  10    3.30    2.50 
   2  -6  10    7.00    2.30 
   2  -6  10    3.20    2.80 
  -3   6 -10    8.10    3.00 
   3  -6  10   11.60    2.80 
   3  -6  10    8.60    3.50 
   4  -6  10    6.00    2.90 
   5  -6  10    6.20    2.40 
   6  -6  10    1.00    2.70 
   7  -6  10   20.70    5.30 
   9  -6  10    2.90    4.00 
   9  -6  10   -5.60    5.10 
  10  -6  10   -1.90    4.60 
  10  -6  10   -4.10    5.30 
  11  -6  10    4.40    5.50 
  11  -6  10    2.80    5.60 
 -10  -5  10   -5.80    4.90 
  -8  -5  10    2.30    3.30 
  -7  -5  10    7.50    3.00 
  -6  -5  10    7.90    2.80 
  -5  -5  10    7.00    2.50 
  -4  -5  10   14.40    3.30 
  -3  -5  10   -2.80    2.20 
  -3  -5  10    3.00    2.90 
  -2  -5  10   20.00    4.00 
  -2  -5  10   21.50    4.20 
  -1  -5  10    7.80    2.60 
  -1  -5  10    2.60    2.30 
   0  -5  10   21.60    3.80 
   0  -5  10   17.20    4.10 
   1  -5  10   23.80    4.70 
   1  -5  10   26.20    4.20 
   2  -5  10    3.50    2.10 
   2  -5  10    4.30    2.60 
  -3   5 -10    5.70    2.50 
   3  -5  10    7.50    2.10 
   3  -5  10    7.60    3.00 
   4  -5  10    7.60    3.40 
   5  -5  10    2.60    2.40 
   6  -5  10    6.00    3.30 
   7  -5  10    9.40    4.40 
   8  -5  10    0.80    3.50 
   8  -5  10    5.60    4.60 
   9  -5  10   -2.10    4.80 
   9  -5  10    4.10    4.10 
  10  -5  10    0.90    4.70 
  10  -5  10   11.70    5.20 
  11  -5  10   33.20    8.20 
  11  -5  10   11.80    6.00 
 -11  -4  10    2.30    6.70 
 -10  -4  10   -3.00    4.20 
  -8  -4  10   12.00    3.60 
  -7  -4  10   27.60    4.60 
  -6  -4  10   59.59    7.30 
  -5  -4  10   15.50    3.30 
  -4  -4  10    5.20    2.60 
  -3  -4  10   31.40    5.00 
  -3  -4  10   33.40    5.70 
  -2  -4  10   51.39    6.70 
  -2  -4  10   52.69    6.60 
  -1  -4  10   11.00    3.10 
  -1  -4  10    8.60    2.80 
   0  -4  10   38.10    5.40 
   0  -4  10   36.10    5.10 
   1  -4  10    2.10    2.30 
   1  -4  10    0.20    2.20 
   2  -4  10   91.79   11.00 
   2  -4  10   94.79   10.20 
  -3   4 -10    0.70    2.00 
   3  -4  10    1.70    2.10 
   3  -4  10    2.40    2.30 
   4  -4  10   43.40    7.40 
   5  -4  10    2.80    2.80 
   6  -4  10   58.79    8.40 
   7  -4  10    3.60    4.00 
   8  -4  10    3.90    4.40 
   8  -4  10   -4.70    4.00 
   9  -4  10    4.50    4.20 
   9  -4  10    6.00    4.60 
  10  -4  10    5.80    4.70 
  10  -4  10    4.80    4.80 
  11  -4  10  112.89   15.30 
 -11  -3  10   -5.10    4.90 
  -8  -3  10   15.90    4.00 
  -7  -3  10   13.30    3.60 
  -5  -3  10   17.80    3.50 
  -4  -3  10   40.30    5.80 
  -4  -3  10   42.60    6.10 
  -3  -3  10    9.30    2.50 
  -3  -3  10   13.30    3.70 
  -2  -3  10   10.90    3.10 
  -2  -3  10    6.70    2.30 
  -1  -3  10    0.40    2.30 
   0  -3  10   11.40    3.20 
   0  -3  10   15.90    3.50 
   1  -3  10    0.00    2.30 
   1  -3  10    1.10    2.10 
   2  -3  10   15.30    3.50 
   2  -3  10   22.40    4.20 
   3  -3  10   60.29    8.10 
   3  -3  10   58.39    6.90 
   4  -3  10   13.50    5.00 
   4  -3  10   10.90    3.00 
   5  -3  10    3.50    3.50 
   6  -3  10   21.20    5.90 
   7  -3  10   14.50    4.50 
   8  -3  10    7.10    5.40 
   8  -3  10    5.00    4.10 
   9  -3  10   43.70    7.90 
   9  -3  10   40.50    8.60 
 -12  -2  10   -5.00    6.60 
 -10  -2  10    9.90    4.00 
  -9  -2  10    0.00    3.20 
  -8  -2  10   29.10    4.80 
  -7  -2  10  600.04   61.39 
  -6  -2  10   21.10    3.90 
  -5  -2  10   12.30    3.60 
  -5  -2  10   17.30    3.50 
  -4  -2  10    1.60    3.50 
  -4  -2  10    2.10    2.10 
  -3  -2  10  267.77   27.50 
  -3  -2  10  255.37   27.20 
  -2  -2  10   61.39    7.50 
  -2  -2  10   62.99    7.50 
  -1  -2  10    3.20    1.90 
  -1  -2  10    4.70    2.50 
   0  -2  10    1.40    1.70 
   0  -2  10    1.70    2.20 
   1  -2  10   85.39    9.40 
   1  -2  10   75.39    8.90 
   2  -2  10   80.19    9.00 
   2  -2  10   77.59    9.60 
   3  -2  10   10.10    3.80 
   3  -2  10    7.00    2.50 
   4  -2  10   85.69   11.90 
   4  -2  10   79.39    9.10 
   5  -2  10    6.90    4.10 
   5  -2  10    1.70    2.70 
  -6   2 -10    3.10    3.50 
   6  -2  10    4.40    3.30 
  -7   2 -10    2.40    3.30 
   7  -2  10    0.60    3.10 
   7  -2  10    2.00    3.30 
   8  -2  10    9.50    3.80 
   8  -2  10    5.30    4.10 
   9  -2  10   41.70    7.70 
   9  -2  10   10.60    6.30 
  10  -2  10   87.69   12.90 
 -13  -1  10   -7.50    7.20 
 -11  -1  10   -3.40    4.50 
 -10  -1  10    4.30    3.80 
  -9  -1  10   -0.40    3.10 
  -8  -1  10   23.20    4.20 
  -7  -1  10    2.50    2.50 
  -6  -1  10    6.10    2.70 
  -5  -1  10    1.00    2.10 
  -5  -1  10    5.60    2.50 
  -4  -1  10    0.00    3.40 
  -4  -1  10    0.10    2.00 
  -3  -1  10   -0.40    2.50 
  -3  -1  10    0.60    1.80 
  -2  -1  10   -1.00    2.10 
  -2  -1  10    3.90    1.80 
  -1  -1  10   -0.90    2.00 
  -1  -1  10   -0.10    1.60 
   0  -1  10   10.80    3.00 
   0  -1  10   10.90    2.80 
   1  -1  10    7.60    2.80 
   1  -1  10   12.90    3.50 
   2  -1  10   10.00    3.60 
   2  -1  10    7.10    2.90 
   3  -1  10   13.30    4.80 
   3  -1  10   12.10    3.30 
   4  -1  10   18.70    6.20 
   4  -1  10   15.40    3.40 
   5  -1  10    6.80    3.60 
   5  -1  10    8.30    3.30 
  -6   1 -10   24.10    5.40 
  -6   1 -10   23.40    4.00 
   6  -1  10   22.10    5.30 
  -7   1 -10   -0.80    3.70 
   7  -1  10   -0.50    3.10 
   7  -1  10    1.90    3.30 
   8  -1  10   35.80    7.40 
   9  -1  10   49.40    8.90 
  10  -1  10   77.99   12.80 
 -13   0  10   10.60    8.80 
 -12   0  10   -5.70    5.00 
 -11   0  10   -1.30    4.20 
 -10   0  10   -1.60    3.50 
  -9   0  10    6.00    3.30 
  -8   0  10  106.89   12.10 
  -7   0  10   23.90    4.20 
  -6   0  10   66.59    8.00 
  -6   0  10   58.09    7.70 
  -5   0  10   77.49    8.90 
  -5   0  10   72.69    9.00 
  -4   0  10    1.10    1.90 
  -4   0  10   -0.10    3.20 
  -3   0  10    0.70    1.80 
  -2   0  10   -1.00    2.20 
  -2   0  10    1.60    1.70 
  -1   0  10    2.30    2.20 
  -1   0  10    3.80    1.80 
   0   0  10  211.98   22.00 
   0   0  10  205.88   22.00 
   1   0  10    7.00    3.10 
   1   0  10    4.60    2.70 
   2   0  10   10.90    4.50 
   2   0  10    1.40    2.20 
   3   0  10   16.30    3.90 
   3   0  10   28.40    7.70 
   4   0  10    8.50    3.20 
   4   0  10    8.20    4.20 
   5   0  10   85.99   10.90 
   5   0  10   92.39   10.20 
   6   0  10    0.50    3.20 
   6   0  10   15.60    4.30 
  -7   0 -10   16.70    5.80 
   7   0  10   30.50    6.00 
   7   0  10    8.80    3.40 
   8   0  10   46.10    8.80 
   9   0  10   65.79   11.20 
 -13   1  10   -6.70    6.40 
 -12   1  10    0.00    4.90 
 -10   1  10    4.20    3.50 
  -9   1  10   25.60    4.80 
  -8   1  10   10.80    3.30 
  -7   1  10    3.30    2.40 
  -7   1  10   -0.10    2.90 
  -6   1  10   11.70    3.00 
  -6   1  10   10.00    3.20 
  -5   1  10    0.50    2.30 
  -5   1  10    3.40    2.20 
  -4   1  10   34.70    4.80 
  -4   1  10   33.10    5.50 
  -3   1  10    2.90    2.00 
  -3   1  10   -1.40    2.60 
  -2   1  10    1.20    1.70 
  -2   1  10   -0.70    2.30 
  -1   1  10    0.30    2.40 
  -1   1  10    3.90    2.20 
   0   1  10    0.80    2.50 
   0   1  10    6.70    2.90 
   1   1  10   13.50    3.90 
   1   1  10   25.10    5.60 
   2   1  10   32.90    6.50 
   2   1  10   20.20    4.50 
   3   1  10   86.69   12.00 
   3   1  10   87.39   10.20 
   4   1  10   19.10    4.90 
   4   1  10   12.60    3.80 
   5   1  10   33.60    6.50 
   5   1  10   43.70    6.00 
   6   1  10   21.80    5.50 
   6   1  10    3.40    2.70 
  -7  -1 -10    2.70    3.60 
  -7  -1 -10    2.20    5.70 
   9   1  10   38.50    9.70 
 -14   2  10    5.60    9.10 
 -13   2  10   17.90    6.50 
 -12   2  10    1.30    4.90 
 -11   2  10    6.60    4.10 
 -10   2  10    6.10    3.60 
  -9   2  10   16.60    3.90 
  -8   2  10  368.96   38.90 
  -8   2  10  386.16   39.30 
  -7   2  10   52.69    7.30 
  -7   2  10   64.49    7.40 
  -6   2  10   -1.70    2.20 
  -6   2  10    0.60    2.20 
  -5   2  10    3.10    2.20 
  -5   2  10    2.50    2.30 
  -4   2  10   65.49    8.70 
  -4   2  10   68.99    7.80 
  -3   2  10    4.70    2.20 
  -3   2  10    0.90    2.80 
  -2   2  10    0.30    2.50 
  -2   2  10    2.90    2.60 
  -1   2  10   65.39    8.30 
  -1   2  10   74.49    8.80 
   0   2  10   -1.70    2.60 
   0   2  10    1.50    3.40 
   1   2  10   21.00    4.30 
   1   2  10   25.60    5.60 
   2   2  10    9.30    4.00 
   2   2  10   11.00    4.30 
   3   2  10  155.88   16.70 
   3   2  10  130.59   16.80 
   4   2  10    2.00    2.90 
   4   2  10    4.30    6.60 
   5   2  10    8.10    3.70 
   5   2  10    3.20    4.60 
   6   2  10   15.50    4.90 
  -7  -2 -10   17.30    4.10 
  -7  -2 -10   15.00    6.20 
  -8  -2 -10    1.90    5.80 
   8   2  10   15.80    6.50 
   9   2  10   52.39   12.10 
 -14   3  10    8.70   10.30 
 -13   3  10    0.90    5.80 
 -12   3  10   -3.40    4.60 
 -11   3  10    4.40    4.10 
  10  -3 -10   34.70    5.10 
 -10   3  10   43.00    6.10 
  -9   3  10    1.30    2.30 
  -9   3  10    3.50    2.90 
  -8   3  10    8.20    2.70 
  -8   3  10    9.60    2.30 
  -7   3  10   -1.70    1.70 
  -6   3  10   -1.30    2.30 
  -6   3  10    2.80    1.90 
  -5   3  10   36.30    5.20 
  -5   3  10   35.20    5.00 
  -4   3  10   -2.90    2.40 
  -4   3  10    2.10    2.80 
  -3   3  10    6.60    3.20 
  -3   3  10    5.30    3.40 
  -2   3  10    5.50    3.20 
  -2   3  10    4.90    3.30 
  -1   3  10    5.60    3.90 
  -1   3  10    7.80    3.50 
   0   3  10   -0.50    3.10 
   0   3  10   -1.80    3.70 
   1   3  10   -1.10    2.90 
   1   3  10    3.60    4.20 
   2   3  10   33.00    7.20 
   2   3  10   27.40    6.70 
   3   3  10   44.60    8.10 
   3   3  10   48.70    7.50 
   4   3  10    2.70    4.10 
   4   3  10    4.10    3.80 
   5   3  10   24.20    6.20 
   5   3  10    1.50    4.20 
  -6  -3 -10    6.00    6.00 
   6   3  10   16.70    5.60 
  -7  -3 -10    1.70    4.00 
  -7  -3 -10    7.20    6.70 
   7   3  10   10.70    5.50 
 -14   4  10   13.10    9.10 
 -13   4  10   27.10    7.60 
 -12   4  10   30.30    6.90 
  11  -4 -10    0.70    2.20 
 -11   4  10    1.50    3.80 
  10  -4 -10    0.80    2.00 
 -10   4  10    4.50    3.10 
   9  -4 -10   32.30    4.30 
  -9   4  10   30.90    5.10 
   8  -4 -10   13.20    2.80 
  -8   4  10    8.30    3.10 
   7  -4 -10   64.79    7.40 
  -7   4  10   53.19    7.40 
  -6   4  10  159.18   17.30 
  -5   4  10    1.40    2.40 
  -4   4  10  111.39   12.10 
  -4   4  10  108.49   12.30 
  -3   4  10   16.10    4.50 
  -3   4  10   12.60    3.10 
  -2   4  10  115.09   13.10 
  -2   4  10  112.69   12.80 
  -1   4  10   27.90    5.70 
  -1   4  10   37.80    5.70 
   0   4  10    6.90    3.10 
   0   4  10    5.10    3.40 
   1   4  10   35.90    6.20 
   1   4  10   45.00    6.90 
   2   4  10   32.30    5.90 
   2   4  10   32.10    8.50 
   3   4  10   21.60    5.70 
   3   4  10   10.30    4.30 
   5   4  10   13.60    4.90 
   5   4  10    3.00    4.50 
  -6  -4 -10   14.30    4.40 
  -6  -4 -10    8.70    6.90 
  -7  -4 -10   16.00    8.10 
  -7  -4 -10   14.90    5.10 
   8   4  10   47.50   12.00 
  14  -5 -10    3.30    3.70 
 -14   5  10   14.50    8.30 
  13  -5 -10   -0.80    2.80 
 -13   5  10    3.30    5.40 
  12  -5 -10   -2.90    2.50 
 -12   5  10   10.00    4.50 
  11  -5 -10   -1.00    2.30 
 -11   5  10    7.00    4.00 
  10  -5 -10    7.30    2.30 
 -10   5  10   14.60    3.80 
   9  -5 -10   36.60    4.80 
  -9   5  10   36.50    5.90 
   8  -5 -10    3.40    1.80 
  -8   5  10   -0.30    3.00 
   7  -5 -10    0.20    2.40 
   6  -5 -10   14.90    3.00 
  -6   5  10    9.40    2.90 
  -5   5  10   14.90    3.40 
  -5   5  10    3.60    2.90 
  -4   5  10   22.40    4.20 
  -4   5  10   23.60    5.10 
  -3   5  10   -2.20    2.60 
  -3   5  10    0.30    3.40 
  -2   5  10   -3.70    2.80 
  -1   5  10    4.50    2.50 
  -1   5  10   -0.90    3.50 
   0   5  10    3.10    3.30 
   0   5  10    3.20    3.70 
   1   5  10   25.80    6.20 
   1   5  10   23.20    5.30 
   2   5  10   28.50    7.30 
   2   5  10   17.40    5.10 
   3   5  10    8.10    4.10 
   3   5  10    3.40    4.30 
   4   5  10   -0.50    4.50 
   4   5  10   -2.90    4.50 
   5   5  10   35.00    8.30 
  -6  -5 -10    8.30    4.70 
  -6  -5 -10   -1.90    7.20 
   6   5  10   13.40    6.20 
  -7  -5 -10   10.70    9.10 
  -7  -5 -10    2.30    5.40 
  14  -6 -10    4.20    3.50 
 -14   6  10   22.20    9.60 
 -13   6  10   32.40    9.20 
  12  -6 -10    7.00    3.00 
 -12   6  10   17.00    5.60 
  11  -6 -10   12.50    2.90 
 -11   6  10   23.90    6.10 
  10  -6 -10   36.90    5.50 
 -10   6  10   48.50    7.20 
   9  -6 -10   87.39    9.50 
  -9   6  10   82.39   10.20 
   8  -6 -10    1.80    1.90 
  -8   6  10   -1.70    3.00 
   7  -6 -10   40.10    5.70 
  -7   6  10   34.80    5.60 
   6  -6 -10    4.10    1.90 
  -6   6  10    2.70    2.80 
  -5   6  10    3.50    2.20 
  -5   6  10    2.40    2.80 
  -4   6  10   21.40    5.30 
  -4   6  10   20.00    4.00 
  -3   6  10   -3.70    2.90 
  -2   6  10   32.30    5.30 
  -2   6  10   23.20    5.90 
  -1   6  10   20.80    4.50 
  -1   6  10   19.20    5.40 
   0   6  10   12.00    3.90 
   0   6  10   12.60    3.80 
   1   6  10   37.70    6.80 
   1   6  10   55.79   10.80 
   2   6  10   29.90    6.70 
   2   6  10   23.00    5.90 
   3   6  10    4.60    5.00 
   3   6  10    8.10    4.70 
   4   6  10   27.40    7.80 
   5   6  10   19.80    6.00 
   5   6  10    8.40    5.20 
  -6  -6 -10    6.60    8.50 
  -6  -6 -10   -0.50    5.40 
   6   6  10   11.30    6.00 
  14  -7 -10   -0.70    3.40 
 -14   7  10   13.50   10.50 
  13  -7 -10   -1.50    2.90 
 -13   7  10   10.50    7.50 
  12  -7 -10   -1.20    2.70 
 -12   7  10    9.70    5.30 
  11  -7 -10    6.00    2.60 
 -11   7  10    8.80    4.50 
  10  -7 -10    5.30    2.40 
 -10   7  10    8.10    4.00 
   9  -7 -10    0.70    2.00 
  -9   7  10   -1.40    3.30 
   8  -7 -10    2.60    2.10 
  -8   7  10    4.40    3.30 
   7  -7 -10    1.40    2.60 
  -7   7  10    3.80    3.20 
   6  -7 -10   20.00    4.00 
  -6   7  10   23.40    4.20 
   5  -7 -10    0.30    1.90 
  -5   7  10   -1.30    3.10 
  -4   7  10   -2.30    3.00 
  -4   7  10    3.00    2.80 
  -3   7  10    6.20    3.50 
  -3   7  10    4.60    3.40 
  -2   7  10    0.00    3.20 
  -2   7  10    2.50    3.20 
  -1   7  10    3.40    3.30 
   0   7  10   13.80    4.30 
   0   7  10   11.20    4.70 
   1   7  10   25.70    7.10 
   1   7  10   30.10    6.10 
   2   7  10    4.00    4.70 
   2   7  10   -0.40    3.90 
   3   7  10   10.90    4.80 
   3   7  10    4.00    5.10 
   4   7  10    8.30    6.00 
   4   7  10   36.00    7.80 
  -6  -7 -10    5.40   11.40 
  14  -8 -10   -0.50    3.80 
 -14   8  10    7.10   10.50 
  13  -8 -10    3.80    3.20 
 -13   8  10   14.10    7.00 
  12  -8 -10   -2.70    2.80 
 -12   8  10    8.00    5.20 
  11  -8 -10   -0.70    2.50 
 -11   8  10    9.50    5.00 
  10  -8 -10   22.80    4.60 
 -10   8  10   33.30    6.50 
   9  -8 -10   12.60    2.90 
  -9   8  10   21.70    5.40 
   8  -8 -10   21.30    4.00 
  -8   8  10   19.10    5.20 
   7  -8 -10    7.40    3.30 
  -7   8  10    5.80    3.30 
   6  -8 -10   -0.70    2.30 
  -6   8  10    2.00    3.50 
   5  -8 -10    4.30    2.20 
  -5   8  10    7.10    3.40 
  -4   8  10   -0.70    3.50 
  -4   8  10    5.60    3.40 
  -3   8  10   38.80    6.00 
  -3   8  10   31.50    5.80 
  -2   8  10   -0.60    3.60 
  -2   8  10    3.70    3.20 
  -1   8  10    6.30    4.20 
  -1   8  10   13.20    4.30 
   0   8  10   59.89   10.40 
   0   8  10   52.39    8.30 
   1   8  10   13.80    4.50 
   1   8  10    2.20    4.90 
   2   8  10    3.50    4.60 
   2   8  10    5.40    5.30 
   3   8  10   43.30    8.70 
   3   8  10   57.59    9.20 
   4   8  10    5.40    5.20 
   4   8  10    1.00    6.40 
  -5  -8 -10    2.00   12.90 
  -5  -8 -10    4.90    7.90 
   5   8  10    9.20    5.80 
  13  -9 -10   -5.00    3.30 
 -13   9  10    9.10    8.40 
  12  -9 -10   -1.20    3.00 
 -12   9  10    6.00    6.20 
  11  -9 -10    5.30    2.80 
 -11   9  10   10.00    5.50 
  10  -9 -10   10.00    3.00 
 -10   9  10   17.90    5.20 
   9  -9 -10    0.70    2.30 
  -9   9  10    4.30    3.90 
   8  -9 -10    7.60    2.60 
  -8   9  10    9.30    4.20 
   7  -9 -10    1.30    2.80 
  -7   9  10    0.80    4.00 
   6  -9 -10    0.20    2.90 
  -6   9  10   -2.40    3.90 
   5  -9 -10    4.90    2.30 
  -5   9  10    7.50    4.00 
  -4   9  10    0.50    3.50 
  -3   9  10   17.30    4.40 
  -3   9  10   18.90    5.10 
  -2   9  10    2.40    3.60 
  -2   9  10   -0.80    4.20 
  -1   9  10   -3.20    4.30 
  -1   9  10   -0.10    6.50 
   0   9  10   20.30    5.70 
   0   9  10   25.90    6.80 
   1   9  10    1.00    5.40 
   1   9  10    6.30    4.60 
   2   9  10    5.10    4.90 
   2   9  10   -0.50    5.80 
   3   9  10    9.90    5.60 
   3   9  10    3.30    6.70 
   4   9  10    4.10    6.00 
   4   9  10    4.50    7.90 
  13 -10 -10    4.80    3.70 
 -13  10  10    8.00    8.80 
  12 -10 -10    4.70    3.30 
 -12  10  10    0.10    6.80 
  11 -10 -10   20.40    5.00 
 -11  10  10   15.30    5.70 
  10 -10 -10   72.59    9.60 
 -10  10  10   92.29   11.40 
   9 -10 -10   20.60    4.60 
  -9  10  10   28.20    6.90 
   8 -10 -10   13.20    3.00 
  -8  10  10   17.20    4.70 
   7 -10 -10    1.30    2.60 
  -7  10  10   -4.10    4.30 
   6 -10 -10    1.70    3.20 
  -6  10  10    4.20    4.50 
   5 -10 -10   39.60    5.50 
  -5  10  10   41.90    6.80 
  -4  10  10   -2.60    4.30 
  -3  10  10   41.40    7.30 
  -2  10  10   18.70    6.80 
  -2  10  10   20.40    5.30 
  -1  10  10    1.10    5.00 
  -1  10  10    4.50    4.80 
   0  10  10    3.00    5.00 
   0  10  10   15.30    6.10 
   1  10  10   14.00    5.80 
   1  10  10    0.40    6.20 
   2  10  10   14.10    8.30 
   2  10  10    9.20    5.90 
   3  10  10    5.70    6.40 
   3  10  10    3.30    7.50 
 -13  11  10    4.40   11.20 
  12 -11 -10    2.00    3.70 
 -12  11  10   13.90    8.30 
  11 -11 -10   -2.10    3.20 
 -11  11  10    6.80    6.40 
  10 -11 -10    3.20    3.00 
 -10  11  10    8.90    6.00 
   9 -11 -10   -0.90    2.70 
  -9  11  10   -1.50    5.30 
   8 -11 -10   -3.40    2.60 
  -8  11  10    0.20    5.20 
   7 -11 -10    1.20    2.70 
  -7  11  10    9.30    4.30 
   6 -11 -10    8.70    4.70 
  -6  11  10   16.20    4.80 
   5 -11 -10    0.40    2.50 
  -5  11  10   -0.90    4.80 
  -4  11  10   -2.30    4.90 
  -3  11  10    4.90    5.30 
  -2  11  10    0.30    5.30 
  -1  11  10   12.10    6.30 
   0  11  10    3.20    5.20 
   0  11  10    0.30    6.90 
   1  11  10   11.50    8.10 
   1  11  10    9.20    6.30 
   2  11  10   -3.10    7.40 
  12 -12 -10   -0.60    3.70 
 -12  12  10    2.00   10.90 
  11 -12 -10    6.00    3.70 
 -11  12  10   16.60    8.10 
  10 -12 -10    4.80    3.20 
 -10  12  10    5.30    6.50 
   9 -12 -10   15.00    3.60 
  -9  12  10   20.20    7.10 
   8 -12 -10    1.30    3.00 
  -8  12  10    1.60    4.70 
   7 -12 -10   -3.00    2.90 
  -7  12  10   11.90    5.50 
   6 -12 -10   -3.80    3.70 
  -6  12  10    0.70    5.40 
   5 -12 -10   -7.10    4.50 
  -5  12  10   -5.30    5.30 
  -4  12  10   15.90    6.20 
  -3  12  10   42.80    9.40 
  -2  12  10    1.50    6.90 
  -1  12  10   10.10    8.30 
   0  12  10    4.90    7.70 
 -11  13  10   -0.60   11.50 
  10 -13 -10    1.00    3.50 
 -10  13  10    0.50    7.50 
   9 -13 -10   -1.60    3.40 
  -9  13  10    1.60    7.30 
   8 -13 -10    1.20    3.30 
  -8  13  10    2.10    7.00 
   7 -13 -10   -3.00    3.20 
  -7  13  10    3.60    7.00 
   6 -13 -10   -3.40    4.70 
  -6  13  10   -5.00    6.70 
  -5  13  10    7.70    7.90 
  -4  13  10    4.60    7.60 
  -3  13  10   17.40    8.10 
  -2  13  10    8.60    7.80 
  -1  13  10    5.10    8.30 
  -9  14  10    2.00    8.20 
   8 -14 -10   -1.70    3.80 
  -8  14  10    6.60    7.90 
  -7  14  10   -0.30    7.30 
  -6  14  10    1.90    7.30 
  -5  14  10    3.50    7.00 
  -4  14  10    7.50    8.10 
   0 -15  11   -4.70    5.60 
   1 -15  11    2.20    5.20 
   1 -15  11   -3.80    5.30 
   2 -15  11    1.10    5.30 
   2 -15  11   -0.50    5.00 
   3 -15  11   -1.10    4.90 
   4 -15  11    0.50    5.00 
   5 -15  11   -0.40    4.90 
  -2 -14  11    9.00    5.80 
  -2 -14  11    1.00    6.00 
  -1 -14  11    3.00    5.50 
  -1 -14  11    1.80    5.30 
   0 -14  11   10.10    5.10 
   0 -14  11    4.40    4.80 
   1 -14  11   27.40    6.10 
   1 -14  11   24.10    6.20 
   2 -14  11   17.60    5.20 
   2 -14  11   21.00    5.60 
   3 -14  11    0.10    4.30 
   4 -14  11    2.40    4.20 
   5 -14  11   -1.70    4.40 
   6 -14  11    0.30    4.50 
   7 -14  11   -1.80    4.40 
  -4 -13  11   -0.90    5.90 
  -3 -13  11    8.30    5.70 
  -2 -13  11    0.40    4.70 
  -2 -13  11    1.70    4.70 
  -1 -13  11    5.40    5.10 
  -1 -13  11   -3.20    4.30 
   0 -13  11    5.20    4.40 
   0 -13  11    6.30    4.00 
   1 -13  11    2.10    4.20 
   1 -13  11    5.60    3.90 
   2 -13  11    3.20    4.00 
   2 -13  11   -2.60    3.80 
   3 -13  11    6.10    3.80 
   5 -13  11    0.70    4.00 
   6 -13  11    2.50    4.20 
   7 -13  11    0.80    4.10 
   8 -13  11    5.20    4.70 
  -5 -12  11   -3.00    5.50 
  -4 -12  11   26.50    7.30 
  -3 -12  11   -1.20    4.50 
  -2 -12  11    8.70    4.40 
  -2 -12  11    6.80    4.30 
  -1 -12  11   15.10    4.20 
  -1 -12  11   11.90    4.40 
   0 -12  11    1.80    3.80 
   0 -12  11    0.40    3.80 
   1 -12  11   -0.20    3.50 
   1 -12  11   -1.00    3.40 
   2 -12  11   -0.80    3.40 
   2 -12  11   -4.50    3.40 
   3 -12  11    5.70    3.50 
   3 -12  11    0.80    4.80 
   4 -12  11   31.70    6.40 
   5 -12  11   15.90    4.50 
   6 -12  11    1.70    3.70 
   8 -12  11   26.00    6.90 
   9 -12  11   -2.30    4.80 
  -6 -11  11    4.30    5.80 
  -5 -11  11    8.10    5.80 
  -4 -11  11   -0.90    4.40 
  -3 -11  11   -2.80    3.90 
  -2 -11  11    6.10    3.80 
  -2 -11  11    4.60    3.70 
  -1 -11  11    0.70    3.40 
  -1 -11  11    2.50    3.40 
   0 -11  11    4.60    3.40 
   0 -11  11    2.10    3.20 
   1 -11  11   -0.80    3.30 
   1 -11  11   -3.80    3.10 
   2 -11  11    1.80    3.00 
   2 -11  11   -4.90    4.50 
   3 -11  11    1.20    3.00 
   4 -11  11    3.50    3.30 
   5 -11  11   -4.20    3.40 
   6 -11  11    2.20    3.50 
   7 -11  11   28.10    6.40 
   8 -11  11   -2.50    4.10 
  -7 -10  11    3.40    5.60 
  -6 -10  11    1.50    5.10 
  -5 -10  11  168.18   18.90 
  -4 -10  11   31.60    5.80 
  -3 -10  11    1.30    3.50 
  -2 -10  11    0.60    3.30 
  -2 -10  11    3.00    3.60 
  -1 -10  11   15.70    3.60 
  -1 -10  11   18.30    4.00 
   0 -10  11   58.09    7.50 
   0 -10  11   64.39    8.10 
   1 -10  11    0.40    4.40 
   1 -10  11   -2.10    2.80 
   2 -10  11   -2.40    2.70 
   2 -10  11    4.50    2.80 
   3 -10  11   -0.70    2.80 
   4 -10  11    2.40    3.00 
   5 -10  11    8.70    3.50 
   6 -10  11    5.40    3.50 
   7 -10  11   12.80    4.10 
   8 -10  11    3.90    3.90 
  10 -10  11    6.00    4.90 
  -8  -9  11   -1.70    5.40 
  -7  -9  11    0.50    5.70 
  -6  -9  11   11.90    4.90 
  -5  -9  11    6.00    3.80 
  -4  -9  11    4.40    3.40 
  -3  -9  11    3.50    3.10 
  -2  -9  11   14.60    3.40 
  -2  -9  11   12.50    3.60 
  -1  -9  11    3.70    2.80 
  -1  -9  11    6.10    2.90 
   0  -9  11    0.30    3.50 
   0  -9  11   -1.20    2.70 
   1  -9  11   -2.10    3.30 
   1  -9  11    2.20    2.50 
   2  -9  11   -0.30    2.50 
   3  -9  11    3.20    2.70 
   4  -9  11   -1.90    2.70 
   5  -9  11   -1.70    2.90 
   6  -9  11    5.10    3.00 
   7  -9  11    0.30    3.30 
  10  -9  11    6.30    4.70 
  -9  -8  11   -1.90    5.50 
  -8  -8  11   -3.50    5.80 
  -7  -8  11    3.50    4.30 
  -6  -8  11   14.90    4.40 
  -5  -8  11    9.90    3.90 
  -4  -8  11   68.59    8.50 
  -3  -8  11   31.20    5.40 
  -3  -8  11   28.10    4.80 
  -2  -8  11   16.90    4.70 
  -2  -8  11   13.90    3.70 
  -1  -8  11    1.30    2.60 
  -1  -8  11    2.00    2.90 
   0  -8  11   -2.50    2.40 
   0  -8  11    0.80    3.90 
   1  -8  11   76.59    9.10 
   1  -8  11   73.19    8.70 
   2  -8  11   80.79    9.50 
   2  -8  11   89.89   10.20 
   3  -8  11   89.89   10.60 
   3  -8  11   90.09    9.80 
   4  -8  11   -1.90    2.50 
   5  -8  11    4.30    3.10 
   6  -8  11    4.90    3.10 
   7  -8  11    7.10    3.60 
   8  -8  11   -3.10    4.30 
   9  -8  11    0.60    3.90 
  10  -8  11   15.20    5.80 
  -9  -7  11   -6.60    5.50 
  -8  -7  11   -1.50    4.20 
  -7  -7  11    0.30    3.70 
  -6  -7  11    9.40    3.90 
  -5  -7  11   20.20    4.50 
  -4  -7  11    2.30    2.80 
  -3  -7  11    2.60    2.90 
  -3  -7  11   -0.50    2.50 
  -2  -7  11    1.80    2.80 
  -2  -7  11    1.10    2.50 
  -1  -7  11    2.90    2.90 
  -1  -7  11    2.60    4.20 
   0  -7  11    2.50    3.20 
   0  -7  11   -0.20    3.00 
   1  -7  11    9.10    3.10 
   1  -7  11    7.20    2.80 
   2  -7  11    3.30    2.40 
   2  -7  11    1.60    2.50 
   3  -7  11    4.10    2.40 
   4  -7  11    9.50    2.80 
   5  -7  11   20.40    4.20 
   6  -7  11    0.90    2.90 
   9  -7  11    8.50    4.30 
  10  -7  11    4.30    5.30 
  10  -7  11   -2.90    5.60 
 -10  -6  11   -5.70    5.60 
  -9  -6  11   -4.80    4.60 
  -8  -6  11   -2.80    3.70 
  -7  -6  11    1.10    3.50 
  -6  -6  11  267.47   28.30 
  -5  -6  11    4.60    2.80 
  -4  -6  11    1.20    2.60 
  -3  -6  11   -0.90    2.70 
  -3  -6  11    0.60    3.80 
  -2  -6  11    4.20    3.60 
  -2  -6  11    2.60    3.20 
  -1  -6  11    5.30    3.00 
  -1  -6  11   11.10    3.90 
   0  -6  11  114.29   13.50 
   0  -6  11  113.39   12.60 
   1  -6  11    2.40    2.90 
   1  -6  11   -0.70    2.70 
   2  -6  11   22.60    5.70 
   2  -6  11   21.60    3.70 
  -3   6 -11   -1.70    3.60 
   3  -6  11    4.80    2.30 
   3  -6  11    4.40    2.30 
   4  -6  11   28.20    4.70 
   5  -6  11   40.90    5.90 
   6  -6  11   -2.60    2.90 
   9  -6  11    5.50    4.50 
   9  -6  11   -1.40    5.60 
  10  -6  11   -4.80    5.30 
  10  -6  11   -0.10    5.10 
 -11  -5  11   -3.20    5.70 
 -10  -5  11   -4.30    5.70 
  -8  -5  11   -0.80    3.70 
  -7  -5  11   17.30    4.30 
  -6  -5  11    7.80    3.20 
  -5  -5  11    1.30    2.70 
  -4  -5  11    3.60    2.70 
  -4  -5  11   -1.70    2.80 
  -3  -5  11   -2.00    2.40 
  -3  -5  11    2.60    3.00 
  -2  -5  11    1.50    2.40 
  -2  -5  11    3.50    3.90 
  -1  -5  11    8.40    2.80 
  -1  -5  11   13.90    3.80 
   0  -5  11   12.50    3.70 
   0  -5  11   15.60    4.10 
   1  -5  11    0.00    2.50 
   1  -5  11    1.00    2.80 
   2  -5  11    3.20    2.50 
   2  -5  11    2.00    2.90 
  -3   5 -11   16.50    3.80 
   3  -5  11   21.00    5.50 
   3  -5  11   20.80    3.50 
   4  -5  11    7.90    2.60 
   5  -5  11   18.00    4.50 
   6  -5  11   25.50    5.70 
   8  -5  11   -1.20    5.00 
   9  -5  11   -0.10    4.90 
   9  -5  11    5.50    4.60 
  10  -5  11    5.80    5.40 
  10  -5  11    2.60    5.40 
 -11  -4  11   -0.50    6.50 
 -10  -4  11   -4.30    4.70 
  -9  -4  11    4.70    4.00 
  -8  -4  11   14.30    4.40 
  -7  -4  11   26.30    4.90 
  -6  -4  11   -3.00    2.60 
  -5  -4  11  102.09   11.60 
  -4  -4  11   57.69    7.20 
  -4  -4  11   52.29    7.30 
  -3  -4  11    3.80    2.40 
  -3  -4  11    6.40    3.90 
  -2  -4  11    0.30    2.00 
  -2  -4  11    3.30    3.40 
  -1  -4  11    7.40    2.40 
  -1  -4  11    4.70    3.00 
   0  -4  11  233.68   24.30 
   0  -4  11  230.88   24.90 
   1  -4  11   40.20    6.20 
   1  -4  11   46.00    5.70 
   2  -4  11   15.80    3.40 
   2  -4  11   24.50    4.90 
   3  -4  11    5.20    3.50 
   3  -4  11    3.40    2.70 
   4  -4  11    1.60    2.60 
   5  -4  11    0.20    2.70 
   6  -4  11   10.20    4.00 
   7  -4  11   -4.90    3.90 
   8  -4  11    5.10    4.10 
   8  -4  11   -3.40    4.60 
   9  -4  11    4.90    5.10 
   9  -4  11    3.90    4.70 
  10  -4  11    1.50    5.30 
  10  -4  11   32.50    7.70 
 -11  -3  11   -2.60    5.60 
  -8  -3  11    9.40    3.60 
  -7  -3  11   48.30    6.60 
  -6  -3  11   -1.10    2.40 
  -5  -3  11   10.40    3.20 
  -5  -3  11    8.60    3.30 
  -4  -3  11    4.50    3.30 
  -4  -3  11   -1.20    2.30 
  -3  -3  11    5.90    2.40 
  -3  -3  11    5.60    4.10 
  -2  -3  11    3.60    2.10 
  -2  -3  11    3.90    3.10 
  -1  -3  11    1.60    2.60 
  -1  -3  11   -2.10    2.00 
   0  -3  11   13.00    3.50 
   0  -3  11   17.80    3.80 
   1  -3  11    9.20    3.00 
   1  -3  11   11.30    3.00 
   2  -3  11    0.10    2.40 
   2  -3  11    1.90    2.70 
   3  -3  11    3.00    3.70 
   3  -3  11   -0.60    2.50 
   4  -3  11   17.60    4.90 
   4  -3  11   13.00    3.40 
   5  -3  11    4.10    2.70 
   5  -3  11    1.30    3.20 
   6  -3  11    1.00    3.60 
   7  -3  11   -1.60    3.80 
   8  -3  11    1.20    4.10 
   8  -3  11   -0.10    5.40 
   9  -3  11   41.10    8.10 
  10  -3  11   51.39   10.60 
 -12  -2  11   -4.70    6.20 
 -11  -2  11   -4.00    4.60 
 -10  -2  11    8.40    4.60 
  -9  -2  11   -0.90    3.40 
  -8  -2  11    7.20    3.40 
  -7  -2  11   16.50    4.00 
  -6  -2  11   60.79    7.80 
  -6  -2  11   67.29    8.30 
  -5  -2  11   81.09    9.90 
  -5  -2  11   88.79   10.10 
  -4  -2  11   12.70    3.50 
  -4  -2  11   16.90    4.30 
  -3  -2  11    2.70    3.70 
  -3  -2  11    2.00    2.10 
  -2  -2  11  111.69   12.50 
  -2  -2  11  111.79   12.60 
  -1  -2  11    2.50    2.00 
  -1  -2  11    1.90    2.30 
   0  -2  11   -2.70    2.60 
   0  -2  11   -0.60    2.00 
   1  -2  11   -2.20    2.40 
   1  -2  11    3.80    2.40 
   2  -2  11   19.20    5.00 
   2  -2  11   14.80    4.10 
   3  -2  11    3.60    4.70 
   3  -2  11   -0.90    2.60 
   4  -2  11   33.30    6.10 
   4  -2  11   28.10    4.70 
   5  -2  11    1.80    3.00 
   5  -2  11    0.50    3.50 
  -6   2 -11   -0.90    3.20 
   6  -2  11   -1.20    3.40 
   7  -2  11   11.10    4.40 
   7  -2  11   10.50    4.30 
   8  -2  11    6.20    4.20 
   8  -2  11    3.40    5.50 
   9  -2  11   47.20    8.40 
   9  -2  11   10.50    6.50 
  10  -2  11   99.29   14.50 
 -12  -1  11   -6.60    6.20 
 -11  -1  11   -1.60    4.70 
 -10  -1  11   -0.10    4.00 
  -9  -1  11   -2.00    3.30 
  -8  -1  11   -0.40    2.80 
  -7  -1  11    4.90    3.00 
  -6  -1  11    7.70    2.80 
  -6  -1  11   -0.20    2.80 
  -5  -1  11   -0.80    2.40 
  -5  -1  11    2.40    2.50 
  -4  -1  11    4.40    3.20 
  -4  -1  11    4.20    2.30 
  -3  -1  11    5.30    2.30 
  -3  -1  11    3.50    3.60 
  -2  -1  11   15.30    3.60 
  -2  -1  11   14.20    3.60 
  -1  -1  11   18.40    3.50 
  -1  -1  11   15.70    3.80 
   0  -1  11   -1.10    2.20 
   0  -1  11    1.00    2.00 
   1  -1  11  105.19   11.70 
   1  -1  11   93.89   11.10 
   2  -1  11    2.90    3.10 
   2  -1  11    9.50    4.00 
   3  -1  11   77.39   11.00 
   3  -1  11   63.79    8.30 
   4  -1  11   -2.60    3.20 
   4  -1  11    0.80    3.50 
   5  -1  11    1.30    3.20 
   5  -1  11    1.20    3.40 
   6  -1  11    5.80    3.50 
   7  -1  11    5.00    3.60 
   7  -1  11    4.30    3.60 
   8  -1  11   33.40    7.30 
   8  -1  11    9.00    4.70 
   9  -1  11   67.59   11.30 
 -13   0  11   -2.40    7.30 
 -12   0  11    5.20    5.30 
 -11   0  11    4.80    4.70 
 -10   0  11    9.90    4.20 
  -9   0  11   -1.80    3.00 
  -8   0  11   22.70    4.40 
  -7   0  11    5.20    3.20 
  -7   0  11    2.90    2.60 
  -6   0  11   15.70    3.50 
  -6   0  11   13.10    3.60 
  -5   0  11    9.90    2.90 
  -5   0  11   12.40    3.20 
  -4   0  11    1.70    2.10 
  -4   0  11   -2.90    2.60 
  -3   0  11   31.40    5.60 
  -3   0  11   35.40    4.80 
  -2   0  11   11.50    2.90 
  -2   0  11    8.30    3.20 
  -1   0  11   22.80    3.90 
  -1   0  11   21.50    3.90 
   0   0  11   26.90    4.60 
   0   0  11   18.80    4.20 
   1   0  11  514.85   50.59 
   1   0  11  469.95   50.59 
   2   0  11   35.40    5.90 
   2   0  11   55.49    8.50 
   3   0  11    9.20    5.80 
   3   0  11    5.40    3.40 
   4   0  11    4.00    3.40 
   4   0  11    6.30    3.40 
   5   0  11   20.70    4.80 
   5   0  11   12.50    4.10 
   6   0  11    6.30    3.10 
   6   0  11    1.90    3.30 
  -7   0 -11    4.80    6.40 
  -7   0 -11    4.10    4.00 
   8   0  11   57.39   10.00 
   9   0  11   86.29   13.20 
 -13   1  11    0.00    7.70 
 -12   1  11    0.00    5.00 
 -11   1  11   -2.60    4.10 
 -10   1  11    1.80    3.50 
  -9   1  11    6.40    3.20 
  -8   1  11    2.90    3.50 
  -8   1  11    2.80    2.90 
  -7   1  11   -1.00    3.10 
  -6   1  11    0.30    2.60 
  -6   1  11   -2.30    2.30 
  -5   1  11    1.50    2.40 
  -4   1  11   -1.70    2.30 
  -4   1  11    0.50    2.00 
  -3   1  11    4.30    3.80 
  -3   1  11    4.00    2.10 
  -2   1  11    1.10    2.10 
  -2   1  11    0.90    2.70 
  -1   1  11   48.30    6.50 
  -1   1  11   41.10    6.30 
   0   1  11    2.80    3.40 
   0   1  11   -0.90    2.70 
   1   1  11   11.40    3.90 
   1   1  11   12.40    4.30 
   2   1  11   63.29    8.20 
   2   1  11   60.19    9.50 
   3   1  11   -1.80    3.70 
   3   1  11    2.30    4.10 
   4   1  11   17.50    6.30 
   4   1  11   22.60    4.90 
   5   1  11    2.30    3.00 
   5   1  11   -5.10    6.30 
   6   1  11   22.60    6.20 
  -7  -1 -11    6.00    3.50 
   8   1  11   57.99   10.70 
   9   1  11   81.79   14.40 
 -13   2  11    2.80    6.70 
 -12   2  11    6.30    5.00 
 -11   2  11   29.70    6.40 
 -10   2  11    3.40    3.40 
 -10   2  11    4.10    3.60 
  -9   2  11   22.40    5.00 
  -9   2  11   19.40    4.60 
  -8   2  11  338.57   33.90 
  -8   2  11  317.47   34.30 
  -7   2  11    7.70    2.70 
  -7   2  11    2.60    2.90 
  -6   2  11   51.69    6.50 
  -6   2  11   47.70    6.50 
  -5   2  11   -0.10    2.40 
  -5   2  11    3.20    2.30 
  -4   2  11   15.10    3.60 
  -4   2  11   16.90    3.70 
  -3   2  11   26.30    4.60 
  -3   2  11   17.10    4.50 
  -2   2  11   66.99    9.30 
  -2   2  11   76.29    9.00 
  -1   2  11   -0.30    3.30 
  -1   2  11    3.70    3.50 
   0   2  11   69.09    9.30 
   0   2  11   67.39    9.20 
   1   2  11   21.30    5.80 
   1   2  11   12.70    4.80 
   2   2  11   80.19   11.30 
   2   2  11   79.59   11.30 
   3   2  11   19.50    7.40 
   3   2  11   18.30    5.30 
   4   2  11   48.20    8.30 
   4   2  11   49.20    7.10 
   5   2  11   22.90    5.30 
   5   2  11    5.90    4.80 
   6   2  11   21.50    6.40 
  -7  -2 -11    2.40    6.10 
  -7  -2 -11    5.70    3.80 
   8   2  11   47.10   10.20 
 -14   3  11   11.10    8.00 
 -13   3  11   12.50    6.50 
 -12   3  11    8.30    4.80 
 -11   3  11   14.70    4.70 
 -10   3  11   35.60    6.10 
  -9   3  11   23.70    4.30 
  -9   3  11   30.50    5.00 
  -8   3  11   10.00    2.20 
  -8   3  11   10.90    3.10 
  -7   3  11   -0.80    2.50 
  -7   3  11   -0.40    2.00 
  -6   3  11   -1.70    2.10 
  -6   3  11   -1.00    2.60 
  -5   3  11   10.00    3.10 
  -5   3  11    8.70    3.00 
  -4   3  11    2.70    3.10 
  -4   3  11    2.40    2.30 
  -3   3  11   58.49    8.10 
  -3   3  11   63.09    7.80 
  -2   3  11   13.80    4.00 
  -2   3  11   19.10    5.30 
  -1   3  11    6.30    3.50 
  -1   3  11    4.70    3.60 
   0   3  11    1.90    3.20 
   0   3  11    0.30    3.50 
   1   3  11   28.10    6.10 
   1   3  11   31.80    5.90 
   2   3  11   30.80    5.90 
   2   3  11   24.90    7.10 
   3   3  11    1.30    4.00 
   3   3  11    7.50    3.60 
   4   3  11    5.10    4.40 
   4   3  11   10.70    4.20 
   5   3  11   -6.00    4.60 
   5   3  11    8.20    4.80 
   6   3  11   41.20    8.90 
  -7  -3 -11   15.40    4.80 
  -7  -3 -11    1.30    7.50 
   8   3  11   66.19   12.90 
 -14   4  11   10.50    8.30 
 -13   4  11   26.50    7.50 
 -12   4  11   23.10    6.40 
 -11   4  11    4.00    4.10 
 -10   4  11    1.60    3.50 
  -9   4  11   67.39    8.50 
  -8   4  11    3.20    3.20 
  -7   4  11   61.59    7.80 
  -6   4  11    9.10    2.40 
  -6   4  11    7.20    2.90 
  -5   4  11    6.60    2.90 
  -5   4  11   -1.90    2.50 
  -4   4  11   72.49    9.10 
  -4   4  11   81.29    9.40 
  -3   4  11   19.90    4.90 
  -3   4  11   15.10    4.00 
  -2   4  11   63.59    8.20 
  -2   4  11   63.89    8.40 
  -1   4  11  172.98   18.90 
  -1   4  11  175.08   19.20 
   0   4  11   -0.70    3.10 
   0   4  11    2.60    3.10 
   1   4  11  108.99   13.20 
   1   4  11  117.79   14.00 
   2   4  11   24.90    6.70 
   2   4  11   14.90    4.50 
   3   4  11   37.90    7.60 
   3   4  11   64.59    8.00 
   4   4  11   13.90    5.00 
   5   4  11   35.60    7.60 
   5   4  11    7.30    5.20 
  -6  -4 -11    5.70    8.00 
   6   4  11   45.60    8.80 
  -7  -4 -11    1.60    8.20 
  -7  -4 -11    3.30    5.20 
 -14   5  11   12.80    9.80 
 -13   5  11   27.50    7.80 
  12  -5 -11    3.00    2.90 
 -12   5  11   11.70    5.00 
  11  -5 -11   -1.30    2.50 
 -11   5  11    9.50    4.30 
  10  -5 -11   -0.50    2.20 
 -10   5  11    2.30    3.90 
   9  -5 -11   -1.60    2.10 
  -9   5  11    3.50    3.60 
   8  -5 -11   10.40    2.40 
  -8   5  11    9.70    3.50 
  -7   5  11    1.60    3.00 
  -6   5  11    2.80    2.70 
  -4   5  11    0.40    2.90 
  -4   5  11   12.40    3.90 
  -3   5  11   25.30    5.60 
  -3   5  11   15.40    4.50 
  -2   5  11   22.80    5.80 
  -2   5  11   17.10    4.60 
  -1   5  11   20.80    4.50 
  -1   5  11   24.80    5.70 
   0   5  11   17.10    5.00 
   0   5  11   25.20    4.90 
   1   5  11   17.80    5.20 
   1   5  11   30.70    8.90 
   2   5  11    0.10    4.00 
   2   5  11   10.40    5.10 
   3   5  11    2.90    4.80 
   3   5  11    8.80    4.70 
   4   5  11   33.20    7.40 
   4   5  11    9.30    5.40 
   5   5  11   12.80    6.30 
   5   5  11   44.20    8.60 
  -6  -5 -11   -3.60    8.00 
  -6  -5 -11    6.90    5.10 
 -14   6  11   58.99   15.70 
  13  -6 -11    6.10    3.40 
 -13   6  11   15.50    6.40 
 -12   6  11   28.30    7.60 
  11  -6 -11    1.80    2.40 
 -11   6  11    1.20    4.70 
  10  -6 -11   20.00    4.30 
 -10   6  11   31.30    6.30 
   9  -6 -11   99.59   11.30 
  -9   6  11  104.59   12.20 
   8  -6 -11   80.09    9.00 
  -8   6  11   75.59    9.50 
   7  -6 -11    6.90    2.80 
  -7   6  11    0.50    3.10 
  -6   6  11   -1.30    3.10 
  -5   6  11   24.50    4.30 
  -5   6  11   13.80    4.10 
  -4   6  11   16.00    4.50 
  -4   6  11   27.60    5.70 
  -3   6  11    0.30    3.20 
  -3   6  11    1.20    3.50 
  -2   6  11  121.79   14.20 
  -2   6  11  128.59   14.20 
  -1   6  11   76.99    9.90 
  -1   6  11   72.89    9.40 
   0   6  11  120.29   14.80 
   0   6  11  135.49   15.60 
   1   6  11    0.30    4.00 
   1   6  11   11.90    5.10 
   2   6  11   33.90    7.30 
   3   6  11    0.50    5.10 
   3   6  11    9.20    5.30 
   4   6  11   16.80    6.50 
   4   6  11    6.60    5.70 
   5   6  11    6.00    6.60 
   5   6  11   36.70    8.00 
  -6  -6 -11   -2.60    6.10 
  -6  -6 -11   -4.80    9.50 
 -14   7  11   22.20   12.80 
  13  -7 -11    3.20    3.20 
 -13   7  11    9.20    7.30 
  12  -7 -11    0.20    2.90 
 -12   7  11   11.90    5.70 
  11  -7 -11    1.70    2.50 
 -11   7  11    3.70    4.70 
  10  -7 -11   -0.30    2.30 
 -10   7  11    3.90    4.00 
   9  -7 -11   31.50    5.00 
  -9   7  11   37.00    6.20 
   8  -7 -11    8.60    2.30 
  -8   7  11    6.30    3.70 
   7  -7 -11    2.60    2.60 
  -7   7  11    2.30    3.40 
  -6   7  11    1.30    3.00 
  -5   7  11    0.70    2.50 
  -5   7  11   -3.00    3.40 
  -4   7  11    7.30    3.60 
  -4   7  11   10.50    3.70 
  -3   7  11   21.30    5.30 
  -3   7  11    9.50    4.00 
  -2   7  11    4.40    3.70 
  -2   7  11   11.30    4.30 
  -1   7  11   12.60    4.60 
  -1   7  11   20.30    5.40 
   0   7  11   25.90    6.30 
   0   7  11   36.70    9.90 
   1   7  11    0.30    4.60 
   1   7  11    4.70    4.80 
   2   7  11    4.80    4.60 
   2   7  11   -1.50    5.20 
   3   7  11    7.20    5.80 
   3   7  11    6.80    5.10 
   4   7  11   30.60    8.70 
   4   7  11    3.70    6.40 
   5   7  11   42.10   10.40 
  13  -8 -11   -0.20    3.20 
 -13   8  11    2.80    7.10 
  12  -8 -11   -1.20    2.90 
 -12   8  11    7.10    5.60 
  11  -8 -11   -3.00    2.60 
 -11   8  11    3.70    5.00 
  10  -8 -11   23.70    4.70 
 -10   8  11   35.20    6.80 
   9  -8 -11   15.20    3.90 
  -9   8  11   15.90    4.90 
   8  -8 -11   66.09    8.60 
  -8   8  11   81.89    9.70 
   7  -8 -11   -2.50    2.50 
  -7   8  11    3.80    3.70 
   6  -8 -11   -0.70    3.10 
  -6   8  11    2.50    3.80 
  -5   8  11    2.00    3.70 
  -4   8  11    4.60    3.90 
  -4   8  11    6.40    3.80 
  -3   8  11   42.30    7.10 
  -3   8  11   51.59    7.10 
  -2   8  11   55.09    8.10 
  -2   8  11   45.10    7.60 
  -1   8  11   98.89   13.50 
  -1   8  11   78.69   11.30 
   0   8  11   15.20    5.20 
   1   8  11    1.50    5.20 
   1   8  11    9.40    5.00 
   2   8  11   18.30    6.30 
   3   8  11   32.40    8.70 
   3   8  11   15.70    7.00 
   4   8  11    3.10    7.70 
   4   8  11   10.00    6.20 
  13  -9 -11   -4.10    3.30 
 -13   9  11    5.70    9.20 
  12  -9 -11   -2.50    3.10 
 -12   9  11   10.30    6.30 
  11  -9 -11    0.80    2.90 
  10  -9 -11   -1.80    2.60 
 -10   9  11   -0.20    4.70 
   9  -9 -11    8.30    2.70 
  -9   9  11   10.40    4.30 
   8  -9 -11    3.20    2.40 
  -8   9  11    7.20    4.50 
   7  -9 -11    4.60    2.70 
  -7   9  11    6.10    4.40 
   6  -9 -11   -4.70    3.60 
  -6   9  11    3.60    4.20 
  -5   9  11   -0.20    4.20 
  -4   9  11    0.20    4.00 
  -3   9  11   -0.20    3.90 
  -3   9  11   -0.10    4.20 
  -2   9  11    7.10    4.50 
  -2   9  11    2.30    4.70 
  -1   9  11    4.90    5.00 
  -1   9  11   29.10    7.30 
   0   9  11    9.20    4.80 
   0   9  11   13.20    5.60 
   1   9  11    2.90    6.20 
   1   9  11   12.30    5.00 
   2   9  11   16.00    5.70 
   2   9  11   16.60    6.80 
   3   9  11    5.20    5.60 
   3   9  11   -6.00    7.60 
 -13  10  11    1.10   11.20 
  12 -10 -11   -0.20    3.30 
 -12  10  11    2.30    7.20 
  11 -10 -11   11.60    3.50 
 -11  10  11   18.60    6.30 
  10 -10 -11   26.60    5.40 
 -10  10  11   35.60    7.70 
   9 -10 -11   11.10    3.10 
  -9  10  11   19.90    5.90 
   8 -10 -11    2.20    2.50 
  -8  10  11    8.40    5.00 
   7 -10 -11   11.00    3.00 
  -7  10  11   15.10    5.00 
   6 -10 -11    2.30    4.40 
  -6  10  11    1.60    4.80 
  -5  10  11    6.30    4.40 
  -4  10  11    3.90    4.60 
  -3  10  11   24.60    6.80 
  -2  10  11   21.20    7.90 
  -2  10  11   23.20    6.60 
  -1  10  11   18.70    6.50 
  -1  10  11   31.60    7.80 
   0  10  11   28.90    7.90 
   0  10  11   37.80    9.00 
   1  10  11    6.00    5.90 
   1  10  11   -4.10    7.60 
   2  10  11    5.10    7.50 
   2  10  11    6.30    6.80 
  12 -11 -11   -1.80    3.70 
 -12  11  11    1.20   10.10 
 -11  11  11   39.70   10.40 
  10 -11 -11    9.80    3.40 
 -10  11  11   14.20    6.20 
   9 -11 -11    3.50    3.00 
  -9  11  11    1.80    5.50 
   8 -11 -11   -3.00    2.60 
  -8  11  11   -1.60    5.50 
   7 -11 -11   27.10    5.20 
  -7  11  11   29.10    6.40 
   6 -11 -11    1.50    4.00 
  -6  11  11   -4.90    4.80 
  -5  11  11    5.40    5.00 
  -4  11  11   18.10    6.50 
  -3  11  11   11.60    6.10 
  -2  11  11    7.30    6.20 
  -1  11  11   -1.10    7.60 
   0  11  11   17.80    8.70 
   0  11  11   13.70    7.00 
   1  11  11    4.80    6.90 
   1  11  11   -4.60    7.60 
 -11  12  11    1.40    8.70 
  10 -12 -11   15.90    4.00 
 -10  12  11   28.60    9.90 
  -9  12  11   -3.30    6.60 
   8 -12 -11    3.00    2.90 
  -8  12  11   -3.30    5.30 
   7 -12 -11    2.30    3.20 
  -7  12  11    8.60    5.90 
   6 -12 -11    5.50    3.80 
  -6  12  11    4.40    5.80 
  -5  12  11    1.60    6.20 
  -4  12  11    6.30    7.30 
  -3  12  11   16.80    8.60 
  -2  12  11    7.60    7.80 
  -1  12  11    0.80    7.60 
  10 -13 -11   -3.80    3.80 
 -10  13  11   -0.90    6.70 
   9 -13 -11   -0.30    3.60 
  -9  13  11    1.40    7.40 
   8 -13 -11    1.60    3.40 
  -8  13  11   11.50    7.50 
   7 -13 -11   -1.10    3.50 
  -7  13  11   11.20    8.00 
  -6  13  11    4.70    7.30 
  -5  13  11   -0.90    7.10 
  -4  13  11    6.70    7.30 
  -3  13  11    6.80    8.10 
  -7  14  11   17.20    8.30 
  -6  14  11    1.50    7.90 
   2 -15  12   -5.10    5.10 
   3 -15  12   -0.40    5.20 
   4 -15  12   -1.10    5.00 
  -1 -14  12    6.60    5.70 
   0 -14  12   -0.30    5.00 
   0 -14  12   -5.10    4.90 
   1 -14  12    7.30    5.20 
   1 -14  12   -3.10    4.70 
   2 -14  12   -1.40    4.50 
   3 -14  12    4.40    4.70 
   4 -14  12   -3.50    4.40 
   5 -14  12   -3.40    4.70 
   6 -14  12    3.50    4.90 
  -3 -13  12    0.00    6.00 
  -3 -13  12    3.60    5.40 
  -2 -13  12   -2.70    5.50 
  -2 -13  12   -0.20    4.90 
  -1 -13  12    5.60    4.70 
  -1 -13  12   -1.80    4.60 
   0 -13  12   -2.70    4.30 
   0 -13  12   -3.70    4.10 
   1 -13  12   -1.00    4.20 
   2 -13  12    4.00    4.00 
   3 -13  12   -2.20    3.90 
   4 -13  12   -0.70    4.10 
   5 -13  12    5.60    4.40 
   6 -13  12    3.20    4.60 
   7 -13  12   10.10    5.10 
  -5 -12  12    0.10    5.60 
  -4 -12  12   -3.10    5.40 
  -3 -12  12    4.90    5.00 
  -3 -12  12   15.90    5.00 
  -2 -12  12   -4.60    4.60 
  -2 -12  12   -1.20    4.20 
  -1 -12  12    9.60    4.30 
  -1 -12  12    7.20    4.00 
   0 -12  12   11.00    4.00 
   0 -12  12    2.80    3.70 
   1 -12  12   -0.90    3.50 
   1 -12  12    1.70    3.60 
   2 -12  12    2.70    3.60 
   3 -12  12   16.30    4.40 
   4 -12  12    4.90    3.80 
   5 -12  12    1.10    3.80 
   6 -12  12    4.70    4.10 
   7 -12  12    3.80    4.40 
   8 -12  12    2.00    4.50 
  -6 -11  12   -6.60    5.70 
  -5 -11  12    3.50    5.80 
  -4 -11  12   -0.90    4.30 
  -3 -11  12   -0.50    4.10 
  -3 -11  12    5.60    4.30 
  -2 -11  12   -2.40    3.80 
  -2 -11  12   -4.80    3.70 
  -1 -11  12    2.10    3.60 
  -1 -11  12    9.50    3.80 
   0 -11  12   -2.80    3.30 
   0 -11  12    0.10    3.50 
   1 -11  12   -1.70    3.20 
   2 -11  12    1.30    3.30 
   3 -11  12   -0.40    3.30 
   4 -11  12    0.30    3.30 
   5 -11  12   -1.50    3.60 
   6 -11  12    3.70    3.80 
   7 -11  12    2.10    4.10 
  -7 -10  12   -2.20    5.60 
  -6 -10  12   -2.30    5.80 
  -5 -10  12    3.60    4.50 
  -4 -10  12   60.79    8.30 
  -3 -10  12   22.20    6.00 
  -3 -10  12   20.30    5.10 
  -2 -10  12    1.50    3.40 
  -2 -10  12    1.40    3.50 
  -1 -10  12   -0.50    3.30 
   0 -10  12    1.70    3.10 
   1 -10  12   -2.30    4.50 
   1 -10  12   10.40    3.10 
   2 -10  12   -1.80    3.00 
   3 -10  12   31.70    5.40 
   3 -10  12   18.50    4.70 
   4 -10  12    5.10    3.30 
   5 -10  12   16.30    4.10 
   6 -10  12    6.90    3.70 
   7 -10  12    1.60    3.70 
   8 -10  12   -6.10    4.70 
  -7  -9  12    3.10    6.10 
  -6  -9  12   -5.80    4.30 
  -5  -9  12   -4.30    3.80 
  -4  -9  12   11.40    4.00 
  -4  -9  12   12.70    4.10 
  -3  -9  12   -2.90    3.30 
  -3  -9  12   -0.50    3.50 
  -2  -9  12   13.70    3.50 
  -2  -9  12    9.80    3.50 
  -1  -9  12   -3.40    2.70 
  -1  -9  12   -3.10    2.90 
   0  -9  12   -4.20    3.40 
   0  -9  12    4.10    2.70 
   1  -9  12   -2.80    4.20 
   1  -9  12    1.80    2.70 
   2  -9  12    7.00    2.90 
   2  -9  12    4.20    3.00 
   3  -9  12   16.90    4.70 
   3  -9  12   16.80    3.90 
   4  -9  12    0.90    3.00 
   5  -9  12   20.10    5.30 
   6  -9  12   -3.70    3.20 
   7  -9  12    6.00    3.90 
   8  -9  12    0.20    4.70 
  -9  -8  12    1.90    5.70 
  -8  -8  12    0.50    5.80 
  -7  -8  12   -2.90    4.20 
  -6  -8  12    4.00    4.00 
  -5  -8  12   33.90    5.90 
  -4  -8  12   27.70    5.70 
  -4  -8  12   23.30    4.80 
  -3  -8  12   44.80    6.50 
  -3  -8  12   52.19    7.40 
  -2  -8  12    1.00    2.80 
  -2  -8  12    0.60    2.80 
  -1  -8  12   11.60    3.60 
  -1  -8  12    9.50    2.90 
   0  -8  12    2.40    5.50 
   0  -8  12    1.80    2.60 
   1  -8  12   25.40    4.60 
   1  -8  12   19.30    4.20 
   2  -8  12    6.80    2.70 
   2  -8  12    3.90    2.80 
   3  -8  12   23.70    5.30 
   3  -8  12   38.40    4.70 
   4  -8  12    3.50    2.60 
   5  -8  12   15.00    4.20 
   6  -8  12    1.20    3.10 
   7  -8  12   35.50    7.30 
   8  -8  12    6.00    5.60 
   9  -8  12    2.00    4.60 
  -9  -7  12   -5.90    5.90 
  -8  -7  12   -3.20    4.80 
  -6  -7  12    6.00    3.80 
  -5  -7  12    7.40    3.60 
  -4  -7  12   -1.70    3.10 
  -4  -7  12   -2.40    3.00 
  -3  -7  12    2.00    2.80 
  -3  -7  12    3.20    2.90 
  -2  -7  12    2.80    2.70 
  -2  -7  12   -1.70    3.00 
  -1  -7  12   -2.10    4.20 
  -1  -7  12    0.40    2.40 
   0  -7  12   -0.60    2.40 
   0  -7  12   -3.70    4.10 
   1  -7  12   -1.00    2.40 
   1  -7  12   -2.90    2.80 
   2  -7  12   10.40    3.30 
   2  -7  12    7.40    2.70 
   3  -7  12   20.20    4.30 
   4  -7  12   28.40    5.10 
   5  -7  12   -0.50    2.80 
   6  -7  12    4.20    3.20 
   8  -7  12   -7.00    5.30 
   9  -7  12   -2.80    4.90 
  10  -7  12    0.20    6.00 
 -10  -6  12   -5.90    5.60 
  -9  -6  12   11.40    6.70 
  -8  -6  12   -1.70    4.30 
  -7  -6  12   -0.40    3.90 
  -6  -6  12  152.48   17.00 
  -5  -6  12   16.00    4.30 
  -4  -6  12   70.59    9.70 
  -4  -6  12   67.09    8.50 
  -3  -6  12   -1.20    2.80 
  -3  -6  12    1.70    3.90 
  -2  -6  12    1.00    3.40 
  -2  -6  12    0.00    3.60 
  -1  -6  12   24.10    6.20 
  -1  -6  12   24.10    5.50 
   0  -6  12    7.80    3.50 
   0  -6  12   10.40    3.80 
   1  -6  12   18.70    4.30 
   1  -6  12   23.60    4.10 
   2  -6  12  108.49   12.60 
   2  -6  12  115.59   12.10 
   3  -6  12   22.50    4.60 
   3  -6  12   27.20    4.00 
   4  -6  12   11.30    2.90 
   5  -6  12   13.10    3.50 
   6  -6  12   -2.40    3.20 
   9  -6  12    2.00    4.90 
  10  -6  12   -1.90    6.30 
  10  -6  12   -2.40    6.00 
  -9  -5  12   -2.80    4.70 
  -8  -5  12    5.90    4.10 
  -7  -5  12   -2.50    3.30 
  -6  -5  12   -2.90    3.30 
  -5  -5  12    2.40    3.20 
  -5  -5  12    4.30    5.10 
  -4  -5  12    8.30    3.90 
  -4  -5  12   10.40    3.50 
  -3  -5  12    3.90    3.00 
  -3  -5  12    5.40    3.20 
  -2  -5  12    5.20    4.40 
  -2  -5  12    4.30    2.90 
  -1  -5  12   11.60    4.20 
  -1  -5  12   11.70    3.50 
   0  -5  12   15.00    4.30 
   0  -5  12   14.40    4.20 
   1  -5  12    2.00    2.50 
   1  -5  12   -2.40    3.30 
   2  -5  12   18.20    4.20 
   2  -5  12   14.00    4.00 
   3  -5  12   -1.70    2.40 
   3  -5  12    1.30    2.60 
   4  -5  12    9.40    3.00 
   5  -5  12   -1.60    2.90 
   9  -5  12    4.90    5.30 
   9  -5  12   -5.00    5.20 
  10  -5  12    4.40    6.00 
  10  -5  12    7.30    6.30 
 -11  -4  12   -3.60    5.80 
 -10  -4  12   -6.50    5.20 
  -9  -4  12   -0.40    4.40 
  -8  -4  12   -4.30    3.70 
  -7  -4  12   18.10    4.50 
  -6  -4  12   23.60    5.00 
  -6  -4  12   33.50    6.80 
  -5  -4  12   65.59    8.20 
  -5  -4  12   52.29    7.50 
  -4  -4  12    7.50    2.90 
  -4  -4  12    7.80    3.60 
  -3  -4  12   23.30    4.50 
  -3  -4  12   23.90    5.00 
  -2  -4  12    8.40    2.80 
  -2  -4  12   16.40    5.20 
  -1  -4  12    3.60    2.40 
  -1  -4  12    0.80    3.40 
   0  -4  12   16.50    3.90 
   0  -4  12   19.20    4.60 
   1  -4  12  172.98   20.40 
   1  -4  12  197.78   19.70 
   2  -4  12   96.19   12.20 
   2  -4  12   98.99   10.70 
   3  -4  12   38.30    5.30 
   3  -4  12   37.10    5.40 
   4  -4  12    0.00    2.80 
   5  -4  12   13.50    4.40 
   6  -4  12   41.80    7.60 
   7  -4  12   -2.90    4.50 
   8  -4  12    1.60    4.50 
   9  -4  12    1.80    5.00 
   9  -4  12    4.80    5.00 
 -12  -3  12   -8.60    6.30 
 -10  -3  12    1.90    4.70 
  -9  -3  12   -3.70    3.80 
  -8  -3  12    3.80    3.60 
  -7  -3  12   -1.50    3.00 
  -6  -3  12   -0.30    3.30 
  -6  -3  12   -0.10    3.00 
  -5  -3  12   -1.00    2.60 
  -5  -3  12    3.80    3.00 
  -4  -3  12    6.00    3.30 
  -4  -3  12    4.70    2.60 
  -3  -3  12   36.60    6.40 
  -3  -3  12   36.40    5.30 
  -2  -3  12    2.60    4.00 
  -2  -3  12    3.50    2.30 
  -1  -3  12    0.60    2.30 
  -1  -3  12   -3.00    2.80 
   0  -3  12    4.40    3.00 
   0  -3  12    8.00    2.50 
   1  -3  12    4.80    2.90 
   1  -3  12    6.20    3.30 
   2  -3  12   12.90    4.30 
   2  -3  12   10.20    3.00 
   3  -3  12   32.80    5.20 
   3  -3  12   30.80    5.40 
   4  -3  12   18.40    4.00 
   4  -3  12   18.10    4.80 
   5  -3  12    1.40    3.90 
   6  -3  12   -2.00    4.00 
   7  -3  12   -2.80    4.60 
   8  -3  12   -3.90    4.60 
   8  -3  12    5.40    4.80 
   9  -3  12   27.80    7.50 
   9  -3  12    3.70    4.70 
 -12  -2  12   -4.30    6.50 
 -11  -2  12    4.30    5.80 
 -10  -2  12    3.20    4.40 
  -9  -2  12   -0.30    3.60 
  -8  -2  12    4.20    3.60 
  -7  -2  12  256.57   25.10 
  -7  -2  12  205.08   24.50 
  -6  -2  12   20.20    4.40 
  -6  -2  12   25.90    5.20 
  -5  -2  12    7.80    3.20 
  -5  -2  12    7.00    3.30 
  -4  -2  12   55.79    7.40 
  -4  -2  12   54.89    7.10 
  -3  -2  12    9.90    2.80 
  -3  -2  12   13.50    4.80 
  -2  -2  12   15.20    4.50 
  -2  -2  12   18.00    3.90 
  -1  -2  12   13.00    3.40 
  -1  -2  12   15.70    3.50 
   0  -2  12   73.99    8.80 
   0  -2  12   70.59    8.70 
   1  -2  12    7.40    3.20 
   1  -2  12    8.50    3.00 
   2  -2  12   16.00    4.30 
   2  -2  12   15.30    5.20 
   3  -2  12    6.00    3.40 
   3  -2  12    4.80    2.90 
   4  -2  12   49.80    8.30 
   4  -2  12   63.89    7.30 
   5  -2  12    2.10    3.50 
   5  -2  12    2.40    3.70 
   6  -2  12    3.10    4.10 
   7  -2  12    4.60    5.40 
   7  -2  12    5.00    4.40 
   8  -2  12   23.30    6.70 
   8  -2  12    6.80    5.50 
   9  -2  12   52.49   10.20 
 -12  -1  12   -3.10    6.90 
 -11  -1  12    1.80    5.10 
 -10  -1  12    1.50    4.40 
  -9  -1  12   -1.30    3.60 
  -8  -1  12    0.80    3.00 
  -8  -1  12    0.70    3.50 
  -7  -1  12   19.20    4.30 
  -6  -1  12    2.10    2.70 
  -6  -1  12    0.60    3.00 
  -5  -1  12    1.00    2.90 
  -5  -1  12    2.30    2.60 
  -4  -1  12   30.50    4.90 
  -4  -1  12   27.80    5.10 
  -3  -1  12   21.90    4.30 
  -3  -1  12   19.30    5.40 
  -2  -1  12   26.40    5.50 
  -2  -1  12   28.80    4.60 
  -1  -1  12    5.30    2.40 
  -1  -1  12   -0.10    3.20 
   0  -1  12   21.80    4.60 
   0  -1  12   28.40    4.40 
   1  -1  12    8.60    3.30 
   1  -1  12    7.50    3.40 
   2  -1  12   40.10    8.50 
   2  -1  12   35.90    6.00 
   3  -1  12    5.20    3.50 
   3  -1  12   -0.30    3.30 
   4  -1  12    8.60    3.60 
   4  -1  12    1.20    3.50 
   5  -1  12   20.50    4.40 
   5  -1  12   10.10    4.10 
   6  -1  12    2.40    3.70 
   7  -1  12    3.50    3.90 
   7  -1  12    8.90    4.20 
   8  -1  12   46.40    9.20 
   9  -1  12   84.69   13.40 
 -13   0  12   -3.70    6.60 
 -12   0  12   15.20    7.20 
 -11   0  12   -3.80    4.40 
 -10   0  12    6.20    4.10 
  -9   0  12    2.50    3.30 
  -9   0  12   -1.40    4.00 
  -8   0  12   16.20    4.10 
  -8   0  12   15.70    4.50 
  -7   0  12   20.10    4.60 
  -7   0  12   27.10    5.50 
  -6   0  12   87.39   10.60 
  -6   0  12   94.79   10.80 
  -5   0  12    2.40    2.50 
  -5   0  12    0.80    2.50 
  -4   0  12   32.90    4.90 
  -4   0  12   24.80    4.80 
  -3   0  12    7.90    2.60 
  -3   0  12    4.40    3.40 
  -2   0  12    1.10    2.10 
  -2   0  12   -2.10    4.00 
  -1   0  12  536.45   55.39 
  -1   0  12  541.35   55.19 
   0   0  12  104.59   12.40 
   0   0  12  110.09   12.50 
   1   0  12   22.80    6.20 
   1   0  12   16.60    4.10 
   2   0  12   34.70    5.80 
   2   0  12   33.30    8.80 
   3   0  12   12.20    4.30 
   3   0  12    7.80    4.10 
   4   0  12   28.70    5.70 
   4   0  12   19.80    5.60 
   5   0  12    2.90    3.30 
   5   0  12    0.10    4.30 
   6   0  12   -3.60    3.40 
   6   0  12   -0.10    3.10 
   7   0  12   31.90    7.70 
   8   0  12   62.89   11.10 
 -13   1  12    4.40    7.00 
 -12   1  12   -3.50    4.90 
 -11   1  12    6.60    4.60 
 -10   1  12    3.00    4.20 
 -10   1  12    5.60    3.90 
  -9   1  12    6.30    3.50 
  -9   1  12    0.70    4.00 
  -8   1  12   27.60    5.80 
  -8   1  12   20.50    4.60 
  -7   1  12   -1.50    2.70 
  -7   1  12    2.50    2.90 
  -6   1  12   -2.40    2.40 
  -6   1  12    0.10    2.70 
  -5   1  12   15.20    4.10 
  -5   1  12   12.20    3.20 
  -4   1  12    2.20    2.40 
  -3   1  12   11.00    2.90 
  -3   1  12   12.80    3.90 
  -2   1  12    1.70    3.50 
  -2   1  12    0.10    2.40 
  -1   1  12   28.50    6.30 
  -1   1  12   29.90    5.80 
   0   1  12   67.79    9.00 
   0   1  12   62.19    9.30 
   1   1  12   29.80    7.10 
   1   1  12   24.60    6.30 
   2   1  12    2.00    5.60 
   2   1  12    1.80    5.20 
   3   1  12    2.50    3.70 
   3   1  12   -3.50    5.20 
   4   1  12    3.50    7.50 
   4   1  12   -1.90    3.20 
   5   1  12    7.80    5.50 
   5   1  12    3.00    3.40 
   6   1  12   36.00    7.50 
   7   1  12   47.40    9.40 
   8   1  12   66.99   11.40 
 -13   2  12   16.00    8.60 
 -12   2  12    1.50    5.00 
 -11   2  12   21.30    5.70 
 -10   2  12   32.00    6.30 
  -9   2  12   40.50    6.20 
  -9   2  12   52.69    6.80 
  -8   2  12   10.50    3.20 
  -7   2  12   67.19    8.20 
  -7   2  12   62.69    8.00 
  -6   2  12   63.99    8.10 
  -6   2  12   66.89    8.10 
  -5   2  12   13.30    3.40 
  -5   2  12   12.50    3.10 
  -4   2  12    1.30    3.00 
  -4   2  12    7.60    2.80 
  -3   2  12   26.80    5.10 
  -3   2  12   15.30    4.20 
  -2   2  12    7.10    3.70 
  -2   2  12    0.40    3.10 
  -1   2  12    4.20    3.90 
  -1   2  12    0.60    3.30 
   0   2  12    5.30    4.30 
   0   2  12    2.20    3.80 
   1   2  12   66.99    9.60 
   1   2  12   71.89   10.20 
   2   2  12   10.20    5.00 
   2   2  12    7.10    4.80 
   3   2  12    2.60    4.30 
   3   2  12    8.30    3.30 
   4   2  12    5.50    5.00 
   4   2  12    6.90    3.80 
   5   2  12    4.30    5.00 
   5   2  12   24.10    6.50 
   6   2  12   44.60    8.80 
 -13   3  12   13.80    8.00 
 -12   3  12    8.80    5.10 
 -11   3  12    9.30    4.40 
 -10   3  12    2.20    3.60 
  -9   3  12    6.90    3.20 
  -8   3  12    9.40    2.40 
  -8   3  12   18.00    3.90 
  -7   3  12   -2.00    2.00 
  -7   3  12    3.00    2.90 
  -6   3  12   -3.00    2.60 
  -6   3  12   -2.70    2.90 
  -5   3  12    6.30    3.40 
  -5   3  12   12.10    3.20 
  -4   3  12   11.90    3.90 
  -4   3  12    8.40    3.10 
  -3   3  12    2.80    3.80 
  -3   3  12   -3.40    3.00 
  -2   3  12    5.90    3.20 
  -2   3  12    9.10    3.90 
  -1   3  12   24.40    5.10 
  -1   3  12   22.30    5.60 
   0   3  12   45.70    7.60 
   0   3  12   54.89    7.30 
   1   3  12    8.60    4.80 
   1   3  12   12.30    4.20 
   2   3  12   32.10    6.30 
   2   3  12   40.50    6.90 
   3   3  12   45.30    6.40 
   3   3  12   27.10    6.50 
   4   3  12   34.60    6.70 
   4   3  12    6.80    5.20 
   5   3  12    5.70    5.50 
   5   3  12   33.10    6.70 
   6   3  12   54.19   10.10 
 -13   4  12   10.30    6.90 
 -12   4  12   12.90    5.30 
 -11   4  12    8.70    4.00 
 -10   4  12    4.90    3.90 
  -9   4  12    0.40    3.40 
  -8   4  12   29.60    5.40 
  -7   4  12    0.80    3.20 
  -6   4  12    0.90    2.50 
  -6   4  12    1.60    3.00 
  -5   4  12    4.70    3.50 
  -5   4  12    4.20    2.80 
  -4   4  12    3.90    3.40 
  -3   4  12    2.20    3.50 
  -3   4  12    1.30    2.70 
  -2   4  12   39.70    6.20 
  -2   4  12   35.10    6.10 
  -1   4  12    4.60    3.60 
  -1   4  12    5.30    3.50 
   0   4  12  149.29   16.40 
   0   4  12  142.39   16.40 
   1   4  12    6.90    6.90 
   1   4  12   -1.20    3.80 
   2   4  12   13.10    4.40 
   3   4  12    1.00    4.80 
   3   4  12   11.80    5.10 
   5   4  12   43.20    9.50 
   6   4  12   60.09   11.20 
 -13   5  12   16.30    7.40 
 -12   5  12    7.80    5.30 
 -11   5  12   13.60    5.00 
 -10   5  12   -0.20    4.20 
  -9   5  12    6.10    3.90 
  -8   5  12    6.40    3.60 
  -7   5  12    1.90    3.10 
  -4   5  12   37.80    6.60 
  -3   5  12   26.90    6.10 
  -2   5  12   13.40    3.80 
  -1   5  12   29.80    6.40 
   0   5  12   69.49   10.30 
   0   5  12   51.69    8.00 
   1   5  12   34.00    8.20 
   2   5  12   25.50    7.00 
   3   5  12   27.40    7.20 
   3   5  12    3.70    5.40 
   4   5  12   31.80    7.90 
   4   5  12    2.50    5.70 
   5   5  12   46.40   10.00 
  -6  -5 -12    7.90    6.10 
  -6  -5 -12   23.00   10.40 
  13  -6 -12    2.90    3.70 
 -13   6  12   16.00    8.30 
  12  -6 -12   10.40    3.50 
 -12   6  12   22.80    6.60 
  11  -6 -12   -0.30    2.60 
 -11   6  12    7.80    5.10 
  10  -6 -12   -2.20    2.50 
 -10   6  12    6.70    4.60 
   9  -6 -12   46.50    6.40 
  -9   6  12   52.69    7.80 
  -8   6  12    9.50    3.70 
  -7   6  12   25.40    5.20 
  -6   6  12    9.20    3.60 
  -5   6  12   39.50    6.00 
  -4   6  12   23.20    6.00 
  -3   6  12   55.19    8.20 
  -2   6  12    0.70    4.00 
  -2   6  12   11.90    4.30 
  -1   6  12    9.90    4.80 
  -1   6  12   -1.80    3.80 
   0   6  12   63.09   10.00 
   0   6  12   97.49   13.80 
   1   6  12   31.40    6.80 
   1   6  12   16.10    5.10 
   2   6  12   28.90    7.80 
   2   6  12    4.20    5.20 
   3   6  12   -0.20    5.90 
   3   6  12   17.00    6.00 
   4   6  12   11.20    7.20 
   4   6  12   -2.80    6.00 
   5   6  12   41.90   10.10 
   5   6  12    5.20    7.40 
  13  -7 -12   -1.10    3.40 
 -13   7  12    7.00    8.70 
  12  -7 -12    4.00    3.20 
 -12   7  12    1.20    5.80 
  11  -7 -12    3.60    2.90 
 -11   7  12    8.50    4.80 
  10  -7 -12    4.10    2.60 
 -10   7  12    3.00    4.30 
   9  -7 -12    2.30    2.50 
  -9   7  12   -0.90    4.10 
   8  -7 -12    5.40    2.50 
  -8   7  12    1.50    4.10 
  -7   7  12    1.10    3.70 
  -6   7  12    2.30    3.40 
  -5   7  12   21.80    4.20 
  -5   7  12   17.20    4.60 
  -4   7  12   22.10    4.80 
  -3   7  12   24.00    6.00 
  -3   7  12   33.10    7.10 
  -2   7  12   27.50    5.80 
  -1   7  12   46.80   10.70 
  -1   7  12   13.20    5.40 
   0   7  12   -1.70    4.90 
   0   7  12   14.80    6.40 
   1   7  12   35.50    8.40 
   1   7  12   10.40    5.60 
   2   7  12   40.10    9.40 
   3   7  12    1.80    6.60 
   3   7  12   13.80    5.60 
   4   7  12    1.80    7.00 
   4   7  12   34.00    9.40 
  13  -8 -12    2.20    3.60 
 -13   8  12   10.70    8.70 
  12  -8 -12   -4.50    3.00 
 -12   8  12    5.40    6.10 
  11  -8 -12    3.20    2.90 
 -11   8  12    8.40    5.50 
  10  -8 -12    0.00    2.80 
 -10   8  12    6.80    4.80 
   9  -8 -12   -0.70    2.40 
  -9   8  12    0.90    4.60 
   8  -8 -12    4.90    2.50 
  -8   8  12    2.90    4.30 
  -7   8  12    6.80    4.20 
  -6   8  12   -1.00    4.20 
  -5   8  12   24.20    4.70 
  -5   8  12   22.00    6.10 
  -4   8  12   42.80    7.30 
  -4   8  12   37.80    6.90 
  -3   8  12   86.89   10.90 
  -3   8  12   75.19   10.60 
  -2   8  12  295.47   30.50 
  -2   8  12  270.37   30.70 
  -1   8  12   43.90   11.20 
  -1   8  12   23.50    6.90 
   0   8  12   31.80    8.90 
   1   8  12   36.50    8.90 
   2   8  12   30.00    7.60 
   3   8  12    3.70    7.80 
   3   8  12   45.60    9.40 
 -13   9  12    6.60    9.50 
  12  -9 -12   -4.60    3.30 
 -12   9  12    7.30    7.70 
  11  -9 -12    0.30    3.10 
 -11   9  12    9.80    6.50 
  10  -9 -12   -0.50    2.70 
 -10   9  12    7.90    5.20 
   9  -9 -12    1.00    2.70 
  -9   9  12    7.40    4.70 
   8  -9 -12    2.30    2.60 
  -8   9  12    7.30    4.70 
  -7   9  12    1.90    4.30 
  -6   9  12    5.80    4.70 
  -5   9  12    8.50    4.90 
  -4   9  12    9.70    4.80 
  -4   9  12   13.80    3.90 
  -3   9  12   13.40    5.20 
  -3   9  12   13.90    5.00 
  -2   9  12   25.30    7.80 
  -2   9  12   35.20    7.20 
  -1   9  12   10.30    4.90 
  -1   9  12   -2.50    5.30 
   0   9  12    8.30    5.30 
   0   9  12    5.30    5.90 
   1   9  12    4.10    6.80 
   1   9  12    5.00    5.60 
   2   9  12    3.10    8.00 
   2   9  12   33.50    9.00 
  12 -10 -12    1.20    3.40 
 -12  10  12    1.80    7.90 
  11 -10 -12    1.00    3.20 
 -11  10  12   11.50    7.00 
  10 -10 -12    4.40    3.00 
 -10  10  12   10.30    5.90 
   9 -10 -12    8.20    3.10 
  -9  10  12   10.60    6.00 
   8 -10 -12   -3.50    2.70 
  -8  10  12    0.40    5.20 
   7 -10 -12   27.50    5.30 
  -7  10  12   29.00    7.50 
  -6  10  12   19.40    6.10 
  -5  10  12   90.39   12.20 
  -4  10  12   15.80    6.20 
  -3  10  12   10.90    5.80 
  -3  10  12   12.20    6.10 
  -2  10  12    6.00    5.40 
  -2  10  12    2.80    5.50 
  -1  10  12   10.10    6.20 
  -1  10  12   -0.10    6.50 
   0  10  12    8.10    8.10 
   0  10  12    2.00    6.10 
   1  10  12    0.70    6.90 
   1  10  12    0.70    7.60 
  11 -11 -12   -4.60    3.40 
 -11  11  12    6.90    9.50 
  10 -11 -12   -0.50    3.20 
 -10  11  12    0.40    7.40 
   9 -11 -12    2.30    3.10 
  -9  11  12    4.00    6.60 
   8 -11 -12   -1.00    3.00 
  -8  11  12    9.10    6.30 
   7 -11 -12    8.60    3.40 
  -7  11  12   14.10    5.40 
  -6  11  12    0.10    5.50 
  -5  11  12   17.30    6.50 
  -4  11  12    3.40    5.90 
  -3  11  12   -4.90    7.00 
  -2  11  12   -2.10    7.90 
  -1  11  12    1.00    7.80 
  -1  11  12    5.20    6.50 
   0  11  12    0.30    8.10 
   0  11  12    6.40    7.60 
  10 -12 -12    5.00    3.60 
 -10  12  12    7.70    8.70 
  -9  12  12   22.10    8.70 
   8 -12 -12   26.60    6.00 
  -8  12  12   34.70    9.60 
  -7  12  12   16.10    7.90 
  -6  12  12   15.50    8.00 
  -5  12  12   40.50   10.60 
  -4  12  12   74.79   13.30 
  -3  12  12   79.29   13.10 
  -2  12  12   12.70    8.10 
  -9  13  12   12.40    8.10 
   8 -13 -12    4.80    4.00 
  -8  13  12   -3.90    7.00 
  -7  13  12    8.80    7.40 
  -6  13  12    8.70    7.40 
  -5  13  12   -1.80    7.60 
  -4  13  12    2.80    7.80 
   0 -14  13   -0.50    5.30 
   1 -14  13    1.50    4.90 
   1 -14  13   -6.90    5.10 
   2 -14  13   -0.70    4.70 
   3 -14  13    3.40    4.80 
   4 -14  13    8.80    5.20 
   5 -14  13    7.20    5.40 
  -2 -13  13    2.70    5.10 
  -1 -13  13   -0.40    5.00 
   0 -13  13   -4.80    4.60 
   1 -13  13    8.10    4.40 
   2 -13  13    2.90    4.30 
   3 -13  13   -1.90    4.10 
   4 -13  13    5.80    4.40 
   5 -13  13   -0.60    4.60 
   6 -13  13    4.40    4.60 
  -4 -12  13    9.20    5.50 
  -4 -12  13    8.90    6.40 
  -3 -12  13   15.30    6.10 
  -3 -12  13   16.60    5.80 
  -2 -12  13    6.20    4.40 
  -2 -12  13    2.50    4.50 
  -1 -12  13    1.60    4.20 
   0 -12  13   -0.30    4.00 
   1 -12  13    3.40    4.20 
   2 -12  13   21.00    5.60 
   2 -12  13    8.30    6.90 
   3 -12  13   31.40    6.40 
   4 -12  13   23.20    6.70 
   5 -12  13   15.60    4.90 
   6 -12  13   17.50    4.90 
  -5 -11  13   -7.40    6.00 
  -4 -11  13    3.40    4.70 
  -4 -11  13   -5.80    4.80 
  -3 -11  13   -4.30    4.20 
  -3 -11  13   -1.80    4.40 
  -2 -11  13    6.40    4.10 
  -2 -11  13   -1.80    3.80 
  -1 -11  13   -1.90    3.70 
   0 -11  13    1.40    3.50 
   1 -11  13    0.40    3.40 
   2 -11  13   -4.70    5.50 
   2 -11  13    3.90    3.40 
   3 -11  13    4.20    3.60 
   4 -11  13   13.90    4.30 
   5 -11  13   25.00    6.40 
   6 -11  13    3.20    4.00 
   7 -11  13   -0.40    4.40 
   8 -11  13   -4.00    5.20 
  -6 -10  13   -2.40    5.90 
  -5 -10  13   53.19    8.80 
  -5 -10  13   37.80    7.70 
  -4 -10  13   -2.60    4.50 
  -4 -10  13    1.50    4.30 
  -3 -10  13   18.90    5.60 
  -3 -10  13   20.70    4.90 
  -2 -10  13   -3.10    3.40 
  -2 -10  13    2.80    3.40 
  -1 -10  13    2.20    3.30 
  -1 -10  13   -3.80    3.30 
   0 -10  13    0.90    3.20 
   1 -10  13   -5.50    4.10 
   1 -10  13    4.10    3.20 
   2 -10  13   19.40    4.80 
   2 -10  13   20.70    5.20 
   3 -10  13   37.20    6.50 
   4 -10  13   22.00    5.60 
   5 -10  13   76.39   10.20 
   6 -10  13   13.80    4.50 
   7 -10  13    0.10    4.10 
   8 -10  13   -4.20    4.80 
  -6  -9  13   -5.20    4.40 
  -5  -9  13   13.60    4.70 
  -5  -9  13    3.10    4.30 
  -4  -9  13    3.60    4.00 
  -4  -9  13   14.20    4.40 
  -3  -9  13   -3.10    3.40 
  -3  -9  13   -2.70    3.40 
  -2  -9  13    3.30    3.60 
  -2  -9  13    8.70    3.50 
  -1  -9  13   -2.30    3.10 
   0  -9  13   -0.50    2.90 
   1  -9  13   -1.90    5.00 
   1  -9  13    0.40    2.80 
   2  -9  13   -0.20    2.90 
   2  -9  13   -3.20    3.10 
   3  -9  13    0.70    3.10 
   4  -9  13   10.00    3.30 
   5  -9  13   -0.60    3.30 
   6  -9  13    2.70    3.80 
   7  -9  13   -4.50    4.00 
  -8  -8  13   -5.60    5.90 
  -6  -8  13   -2.60    4.20 
  -5  -8  13   23.10    6.00 
  -5  -8  13   17.80    4.90 
  -4  -8  13   18.90    5.00 
  -4  -8  13   26.80    6.00 
  -3  -8  13   41.00    6.20 
  -3  -8  13   42.80    6.50 
  -2  -8  13    8.90    3.30 
  -2  -8  13    6.90    3.40 
  -1  -8  13   -2.10    3.20 
  -1  -8  13    1.90    2.80 
   0  -8  13    3.20    4.60 
   0  -8  13    4.00    2.80 
   1  -8  13    5.20    3.70 
   1  -8  13    5.40    2.80 
   2  -8  13   66.79    7.90 
   2  -8  13   63.99    8.20 
   3  -8  13   24.20    6.40 
   4  -8  13   29.40    5.70 
   5  -8  13    3.50    3.30 
   6  -8  13    2.70    3.40 
   7  -8  13   -2.90    4.30 
  -6  -7  13   -1.60    3.90 
  -5  -7  13   20.30    5.20 
  -5  -7  13   23.40    5.70 
  -4  -7  13    8.40    3.60 
  -4  -7  13    4.80    3.40 
  -3  -7  13    3.20    3.00 
  -3  -7  13   -3.40    3.20 
  -2  -7  13    4.70    3.40 
  -2  -7  13    6.00    2.80 
  -1  -7  13   -3.60    3.30 
  -1  -7  13    5.40    2.70 
   0  -7  13   -2.10    2.50 
   0  -7  13   -0.60    4.70 
   1  -7  13    5.20    2.80 
   1  -7  13    5.30    3.10 
   2  -7  13    9.50    3.00 
   3  -7  13    6.40    3.00 
   3  -7  13   23.30    4.20 
   4  -7  13    9.30    3.10 
   5  -7  13    5.30    3.30 
   6  -7  13   -0.70    3.60 
   7  -7  13   -0.10    4.90 
   9  -7  13    3.60    5.90 
  -9  -6  13   -3.40    6.30 
  -8  -6  13   -5.90    4.70 
  -6  -6  13   -3.90    3.90 
  -6  -6  13    4.50    3.90 
  -5  -6  13   94.19   11.80 
  -5  -6  13  107.19   12.60 
  -4  -6  13    9.50    3.60 
  -4  -6  13    4.30    3.20 
  -3  -6  13   23.30    5.20 
  -3  -6  13   17.50    4.40 
  -2  -6  13   25.40    4.90 
  -2  -6  13   20.40    5.10 
  -1  -6  13    6.40    2.80 
  -1  -6  13    4.70    5.00 
   0  -6  13   12.60    3.10 
   0  -6  13   15.00    4.80 
   1  -6  13   57.69    7.60 
   1  -6  13   63.49    7.40 
   2  -6  13   12.30    2.90 
   3  -6  13   37.90    5.70 
   3  -6  13   46.50    5.80 
   4  -6  13   -0.90    2.80 
   5  -6  13   18.40    4.90 
   6  -6  13   -3.50    3.50 
   9  -6  13    5.50    5.90 
  -9  -5  13   -6.40    5.50 
  -7  -5  13    9.00    4.50 
  -6  -5  13   15.80    4.30 
  -6  -5  13    6.90    4.20 
  -5  -5  13   -0.90    3.40 
  -5  -5  13    3.40    4.00 
  -4  -5  13    5.90    5.20 
  -4  -5  13    4.10    3.30 
  -3  -5  13   14.60    5.00 
  -3  -5  13   15.20    4.20 
  -2  -5  13   37.60    7.40 
  -2  -5  13   40.60    6.30 
  -1  -5  13    7.30    5.10 
  -1  -5  13    5.50    4.10 
   0  -5  13    8.00    3.10 
   0  -5  13    6.40    3.70 
   1  -5  13   29.10    4.80 
   1  -5  13   31.20    5.10 
   2  -5  13   32.90    4.90 
   2  -5  13   29.70    5.30 
   3  -5  13    2.70    2.70 
   3  -5  13    8.80    3.40 
   4  -5  13   44.90    6.40 
   5  -5  13   -1.00    3.00 
   8  -5  13   -6.60    5.30 
   9  -5  13    0.50    6.20 
   9  -5  13    8.80    5.90 
 -10  -4  13   -6.10    6.50 
  -7  -4  13   12.70    4.90 
  -7  -4  13    5.40    4.20 
  -6  -4  13   14.20    7.00 
  -6  -4  13    8.10    3.70 
  -5  -4  13   12.80    4.20 
  -5  -4  13   10.00    3.60 
  -4  -4  13    1.10    3.20 
  -4  -4  13    0.90    3.00 
  -3  -4  13   31.70    5.50 
  -3  -4  13   31.00    5.40 
  -2  -4  13   63.29    8.40 
  -2  -4  13   67.09    8.90 
  -1  -4  13   99.29   11.80 
  -1  -4  13   92.49   11.90 
   0  -4  13   -1.70    3.60 
   0  -4  13    1.90    3.30 
   1  -4  13    4.80    3.40 
   1  -4  13    3.50    2.80 
   2  -4  13  104.59   11.40 
   2  -4  13  100.79   11.70 
   3  -4  13   -0.70    3.30 
   3  -4  13    1.40    2.60 
   4  -4  13    5.90    3.50 
   4  -4  13    3.20    2.80 
   5  -4  13   -4.10    3.50 
   7  -4  13   -3.30    5.30 
   8  -4  13    0.40    4.90 
   8  -4  13   -1.20    5.70 
   9  -4  13    6.10    6.10 
   9  -4  13    4.00    5.40 
 -11  -3  13   -6.00    6.00 
 -10  -3  13   -6.40    5.10 
  -9  -3  13   -3.60    4.30 
  -8  -3  13   -1.30    3.70 
  -7  -3  13   -2.20    4.90 
  -6  -3  13    2.50    3.30 
  -6  -3  13    1.30    3.60 
  -5  -3  13    4.30    3.10 
  -5  -3  13    2.50    3.10 
  -4  -3  13   21.90    4.70 
  -4  -3  13   24.50    4.60 
  -3  -3  13   42.60    6.40 
  -3  -3  13   43.70    6.20 
  -2  -3  13   28.90    5.10 
  -2  -3  13   25.60    6.30 
  -1  -3  13    5.70    4.30 
  -1  -3  13    3.70    2.70 
   0  -3  13   11.30    3.90 
   0  -3  13   10.80    3.30 
   1  -3  13   33.20    5.10 
   1  -3  13   28.30    6.70 
   2  -3  13   29.00    4.80 
   2  -3  13   25.70    5.00 
   3  -3  13   17.40    4.70 
   3  -3  13   21.20    3.90 
   4  -3  13    1.70    3.30 
   5  -3  13    2.20    4.10 
   7  -3  13   -3.00    5.10 
   8  -3  13   12.50    5.50 
   8  -3  13    6.20    4.90 
   9  -3  13   31.80    9.20 
 -12  -2  13   -5.60    6.30 
 -11  -2  13   -4.00    7.00 
 -10  -2  13   16.20    5.70 
  -9  -2  13   -0.30    3.90 
  -8  -2  13   -0.60    4.30 
  -8  -2  13   -1.70    3.70 
  -7  -2  13   34.00    6.30 
  -7  -2  13   54.69    7.80 
  -6  -2  13   36.40    5.70 
  -6  -2  13   36.40    6.50 
  -5  -2  13   79.09    9.70 
  -5  -2  13   77.99    9.50 
  -4  -2  13   67.99    8.60 
  -4  -2  13   72.29    8.90 
  -3  -2  13  166.48   18.50 
  -3  -2  13  171.28   18.40 
  -2  -2  13   51.59    8.10 
  -2  -2  13   51.09    7.00 
  -1  -2  13   21.50    4.70 
  -1  -2  13   24.30    5.90 
   0  -2  13    0.30    2.50 
   0  -2  13   -0.60    3.30 
   1  -2  13   90.09   10.80 
   1  -2  13   92.89   11.80 
   2  -2  13    6.00    3.40 
   2  -2  13    6.10    3.30 
   3  -2  13   21.90    4.60 
   3  -2  13   16.70    4.70 
   4  -2  13   -1.40    3.60 
   5  -2  13    1.90    4.20 
   7  -2  13    4.10    4.80 
   8  -2  13   40.20    8.60 
 -12  -1  13   -3.90    6.50 
 -11  -1  13   -0.70    5.10 
 -10  -1  13   -1.30    4.40 
  -9  -1  13    4.60    5.00 
  -9  -1  13    0.90    3.70 
  -8  -1  13   -1.00    3.90 
  -7  -1  13    1.10    3.50 
  -7  -1  13    1.50    3.10 
  -6  -1  13   11.40    3.40 
  -6  -1  13   13.00    3.60 
  -5  -1  13   -1.30    2.90 
  -5  -1  13    0.00    2.90 
  -4  -1  13   60.99    7.80 
  -4  -1  13   58.49    7.90 
  -3  -1  13   60.69    7.00 
  -3  -1  13   44.30    7.20 
  -2  -1  13   29.50    6.60 
  -2  -1  13   28.60    4.80 
  -1  -1  13    5.70    4.90 
  -1  -1  13    2.80    2.30 
   0  -1  13   49.20    8.00 
   0  -1  13   58.29    7.60 
   1  -1  13    4.90    4.50 
   1  -1  13    0.30    3.70 
   2  -1  13    3.60    4.00 
   2  -1  13    2.10    4.50 
   3  -1  13   64.99    7.80 
   3  -1  13   47.70    8.50 
   4  -1  13    3.20    4.00 
   4  -1  13    6.20    4.00 
   5  -1  13   -0.30    4.50 
   5  -1  13   -2.10    3.90 
   6  -1  13    0.90    4.10 
   7  -1  13   12.20    4.80 
   8  -1  13   48.60    9.40 
 -12   0  13   -2.40    6.60 
 -11   0  13   13.00    5.50 
 -10   0  13    5.00    4.90 
 -10   0  13    3.60    4.20 
  -9   0  13    5.30    3.90 
  -9   0  13    6.80    4.60 
  -8   0  13    1.80    3.80 
  -8   0  13    0.60    3.30 
  -7   0  13   -2.70    3.10 
  -7   0  13    3.30    3.20 
  -6   0  13   57.09    7.50 
  -6   0  13   50.49    7.10 
  -5   0  13  116.19   13.40 
  -5   0  13  119.99   13.40 
  -4   0  13   15.60    4.20 
  -4   0  13    7.70    3.30 
  -3   0  13   24.90    4.40 
  -3   0  13   17.90    5.10 
  -2   0  13   80.09   10.00 
  -2   0  13   79.99    9.50 
  -1   0  13    1.10    4.80 
  -1   0  13    4.90    2.80 
   0   0  13  592.04   59.29 
   0   0  13  556.64   58.99 
   1   0  13    6.50    5.40 
   1   0  13    6.20    5.10 
   2   0  13   18.10    5.50 
   2   0  13   15.00    5.40 
   3   0  13   -1.50    3.80 
   3   0  13    1.40    5.10 
   4   0  13   41.70    8.50 
   4   0  13   36.90    7.20 
   5   0  13   21.80    7.50 
   5   0  13   20.20    6.00 
   6   0  13    6.00    4.10 
   7   0  13   34.30    8.60 
   8   0  13   93.59   14.30 
 -13   1  13    8.10    6.90 
 -12   1  13    7.10    7.10 
 -11   1  13    5.00    5.00 
 -10   1  13   -0.20    4.40 
 -10   1  13   -2.30    5.20 
  -9   1  13    7.30    3.50 
  -9   1  13    7.60    4.10 
  -8   1  13   28.00    5.90 
  -8   1  13   28.50    5.10 
  -7   1  13    2.30    3.10 
  -7   1  13    1.60    2.90 
  -6   1  13   15.80    3.90 
  -6   1  13   16.30    3.80 
  -5   1  13   39.90    6.00 
  -5   1  13   43.50    6.20 
  -4   1  13    1.60    2.60 
  -4   1  13    2.20    3.20 
  -3   1  13   52.89    7.50 
  -3   1  13   56.29    7.10 
  -2   1  13   23.80    5.00 
  -2   1  13   16.70    4.60 
  -1   1  13   14.60    4.30 
  -1   1  13   14.80    4.40 
   0   1  13    2.80    4.50 
   0   1  13    6.70    4.30 
   1   1  13    6.70    6.10 
   1   1  13   10.30    5.60 
   2   1  13   14.50    5.30 
   2   1  13   27.40    7.30 
   3   1  13    7.60    5.50 
   3   1  13    2.50    3.40 
   4   1  13    2.90    3.40 
   4   1  13    0.60    5.30 
   5   1  13   22.70    6.10 
   6   1  13   49.40    9.00 
   7   1  13   68.19   11.50 
 -13   2  13    3.70    6.50 
 -12   2  13    7.30    5.90 
 -11   2  13   24.10    6.50 
 -10   2  13   11.60    4.30 
  -9   2  13   13.20    4.80 
  -9   2  13   23.20    5.10 
  -8   2  13   34.40    5.50 
  -8   2  13   32.40    5.40 
  -7   2  13   15.80    4.70 
  -7   2  13   27.20    4.60 
  -6   2  13   16.50    3.70 
  -6   2  13   15.00    3.80 
  -5   2  13   -2.00    3.10 
  -5   2  13   -0.10    2.50 
  -4   2  13  111.09   13.10 
  -4   2  13  123.19   13.40 
  -3   2  13   34.50    6.70 
  -3   2  13   41.90    6.00 
  -2   2  13   25.30    6.10 
  -2   2  13   21.30    5.10 
  -1   2  13  106.49   12.20 
  -1   2  13  100.79   12.60 
   0   2  13   36.30    6.40 
   0   2  13   36.90    7.10 
   1   2  13    8.70    3.80 
   1   2  13    6.20    6.00 
   2   2  13    8.40    4.40 
   2   2  13    8.00    4.00 
   3   2  13    6.50    3.50 
   3   2  13    0.90    4.40 
   4   2  13   22.20    5.90 
   4   2  13    0.90    5.20 
   6   2  13   66.79   10.80 
   7   2  13   96.29   14.20 
 -13   3  13   15.20    7.30 
 -12   3  13    5.20    5.30 
 -11   3  13   20.90    6.00 
 -10   3  13    0.50    3.90 
  -9   3  13   35.30    6.00 
  -8   3  13   13.80    3.80 
  -7   3  13   31.20    5.20 
  -7   3  13   17.80    3.60 
  -6   3  13   -4.60    3.40 
  -5   3  13   -0.10    3.10 
  -4   3  13    2.80    3.80 
  -4   3  13    2.60    3.10 
  -3   3  13   19.80    4.90 
  -3   3  13   20.90    5.10 
  -2   3  13    4.20    3.50 
  -2   3  13    0.70    3.70 
  -1   3  13    5.50    3.60 
  -1   3  13    4.40    3.70 
   0   3  13    4.00    4.00 
   0   3  13    4.70    4.40 
   1   3  13    4.00    4.50 
   1   3  13    4.20    3.90 
   2   3  13    8.00    4.50 
   2   3  13   20.30    5.50 
   6   3  13   84.49   12.90 
 -13   4  13    7.30    6.90 
 -12   4  13    9.60    5.20 
 -11   4  13   10.70    4.90 
 -10   4  13    5.30    4.20 
  -9   4  13   -0.90    4.00 
  -8   4  13   20.50    5.10 
  -7   4  13   61.79    8.20 
  -6   4  13   50.59    7.20 
  -6   4  13   64.49    7.70 
  -5   4  13    1.60    3.30 
  -5   4  13    2.20    3.40 
  -4   4  13    0.00    3.30 
  -4   4  13    2.30    3.40 
  -3   4  13   40.10    6.30 
  -3   4  13   42.40    6.80 
  -2   4  13  145.59   16.60 
  -2   4  13  150.58   16.50 
  -1   4  13  415.16   42.50 
  -1   4  13  394.16   42.00 
   0   4  13    1.60    3.80 
   0   4  13    4.70    5.30 
   1   4  13   43.80    7.60 
   1   4  13   11.10    5.10 
   2   4  13   30.30    7.10 
   3   4  13   23.60    6.80 
   6   4  13   82.59   13.40 
 -13   5  13   22.20    8.50 
 -12   5  13   11.80    6.30 
 -11   5  13    6.90    5.00 
 -10   5  13   16.80    5.40 
  -9   5  13   28.40    6.50 
  -8   5  13    1.30    3.80 
  -7   5  13   25.40    5.20 
  -4   5  13   53.19    7.90 
  -1   5  13   42.70    6.80 
   0   5  13   43.30   10.70 
   3   5  13   48.00    9.40 
   5   5  13   56.59   11.40 
 -13   6  13    9.10    8.50 
 -12   6  13   15.40    7.20 
 -11   6  13   12.80    5.30 
 -10   6  13    5.80    4.60 
  -9   6  13    8.90    4.40 
  -8   6  13   39.90    6.60 
  -7   6  13   19.80    4.50 
  -6   6  13    3.50    3.70 
  -5   6  13   -1.20    3.50 
  -4   6  13   23.10    5.40 
  -3   6  13   33.60    6.30 
  -1   6  13   17.60    7.90 
  -1   6  13   15.30    5.10 
   0   6  13   62.19   10.20 
   1   6  13   13.40    5.20 
   3   6  13   38.00    9.50 
   4   6  13   -5.30    6.90 
   4   6  13   22.70    8.20 
 -13   7  13    8.70    8.10 
 -12   7  13    8.50    7.20 
 -11   7  13    3.90    5.20 
 -10   7  13    8.90    4.90 
  -9   7  13    5.00    4.80 
  -8   7  13    9.40    4.70 
  -7   7  13    5.30    4.20 
  -6   7  13    8.60    4.20 
  -5   7  13    5.30    4.40 
  -5   7  13    6.70    3.40 
  -4   7  13   28.20    6.80 
  -3   7  13    6.70    5.30 
  -3   7  13   30.10    7.90 
  -2   7  13   32.30    6.70 
  -1   7  13   15.50    8.70 
  -1   7  13    0.40    4.90 
   0   7  13   35.10    8.60 
   1   7  13   39.20    9.50 
   1   7  13    7.40    5.90 
   2   7  13   37.00   10.10 
   2   7  13    3.40    6.60 
   3   7  13   41.00    9.00 
   3   7  13    2.70    7.20 
   4   7  13    5.10    8.70 
 -13   8  13   12.60    7.90 
  12  -8 -13    7.10    3.50 
 -12   8  13    8.80    8.50 
  11  -8 -13    6.20    3.30 
 -11   8  13    8.30    5.90 
  10  -8 -13    0.30    3.10 
 -10   8  13   10.30    5.50 
  -9   8  13   32.00    7.30 
  -8   8  13    4.80    4.40 
  -7   8  13   15.00    5.10 
  -6   8  13    3.30    4.60 
  -5   8  13   13.60    5.00 
  -4   8  13   24.30    5.50 
  -4   8  13   20.70    5.70 
  -3   8  13   98.99   11.70 
  -3   8  13   63.79   10.60 
  -2   8  13   24.60    8.80 
  -2   8  13   11.30    5.50 
  -1   8  13   41.30   10.00 
   0   8  13   44.30   10.00 
   0   8  13    9.20    6.20 
   1   8  13    5.10    6.50 
   1   8  13   20.20    7.10 
   2   8  13   45.60   11.50 
   3   8  13  -10.10    8.20 
  12  -9 -13   -4.70    3.60 
 -12   9  13    5.50    7.70 
  11  -9 -13    2.70    3.30 
 -11   9  13    2.80    7.00 
  10  -9 -13   -2.80    3.00 
 -10   9  13    6.20    5.70 
  -9   9  13    8.00    5.40 
  -8   9  13    0.40    5.20 
  -7   9  13   10.80    5.20 
  -6   9  13    0.20    5.40 
  -5   9  13   -1.90    5.20 
  -4   9  13    5.60    5.40 
  -4   9  13   21.00    5.90 
  -3   9  13   13.00    5.50 
  -3   9  13   18.90    5.80 
  -2   9  13   10.70    6.00 
  -2   9  13   19.30    6.90 
  -1   9  13   15.40    6.10 
  -1   9  13    8.10    6.00 
   0   9  13   18.30    6.30 
   0   9  13    4.50    7.10 
   1   9  13   -3.10    8.40 
   1   9  13    8.00    6.50 
   2   9  13    6.40    8.30 
 -12  10  13    6.10    6.90 
  11 -10 -13   -3.20    3.40 
 -11  10  13    1.60    7.10 
  10 -10 -13    4.50    3.40 
 -10  10  13    8.50    7.40 
   9 -10 -13    4.10    3.10 
  -9  10  13    5.50    6.80 
  -8  10  13    8.90    6.10 
  -7  10  13   -1.10    5.80 
  -6  10  13   16.20    6.20 
  -5  10  13   21.10    6.50 
  -4  10  13    0.10    5.60 
  -3  10  13    6.70    7.40 
  -3  10  13    5.30    6.30 
  -2  10  13    9.70    5.90 
  -2  10  13   10.10    7.20 
  -1  10  13   37.80   10.20 
  -1  10  13   24.30    9.50 
   0  10  13   11.20    7.50 
   0  10  13    2.90    7.90 
 -11  11  13   -0.90    8.10 
  10 -11 -13    4.40    3.60 
 -10  11  13    5.50    7.40 
   9 -11 -13    0.60    3.40 
  -9  11  13   -3.40    7.30 
  -8  11  13    1.50    7.90 
  -7  11  13   -0.90    6.00 
  -6  11  13   12.40    8.10 
  -5  11  13   -1.30    7.20 
  -4  11  13    5.10    8.20 
  -3  11  13   23.10    8.90 
  -2  11  13   17.30    5.90 
  -2  11  13    0.70    7.60 
  -1  11  13    6.90    7.20 
  -1  11  13   -7.70    7.70 
   9 -12 -13   -2.90    3.80 
  -9  12  13   18.20    8.00 
  -8  12  13    5.00    7.00 
  -7  12  13    3.30    6.80 
  -6  12  13   10.60    7.50 
  -5  12  13    1.30    7.30 
  -4  12  13   -0.50    7.80 
  -3  12  13   38.70   10.00 
  -1 -13  14   -0.90    5.00 
   0 -13  14    2.00    4.40 
   1 -13  14   -4.10    4.50 
   2 -13  14   -0.10    4.30 
   3 -13  14    6.60    4.90 
   4 -13  14    5.80    4.90 
   5 -13  14    7.00    5.10 
  -3 -12  14   10.10    5.30 
  -3 -12  14   -0.50    5.50 
  -2 -12  14   -4.40    4.90 
  -2 -12  14    3.50    4.50 
  -1 -12  14    1.80    4.50 
   0 -12  14    0.10    4.00 
   1 -12  14    6.50    4.40 
   2 -12  14    1.20    4.00 
   3 -12  14    0.00    4.20 
   4 -12  14   44.10    8.00 
   5 -12  14    4.10    4.20 
   6 -12  14    3.00    5.10 
  -5 -11  14   -8.00    5.80 
  -5 -11  14    4.60    5.70 
  -4 -11  14   -1.20    4.90 
  -3 -11  14   -5.30    4.40 
  -3 -11  14    3.90    4.40 
  -2 -11  14   -2.60    4.10 
  -1 -11  14   -3.60    3.90 
   0 -11  14    5.80    3.80 
   1 -11  14    6.50    4.00 
   2 -11  14    0.20    3.70 
   3 -11  14   10.20    4.20 
   4 -11  14    6.70    4.10 
   5 -11  14    2.70    4.20 
   6 -11  14    1.60    4.20 
   7 -11  14   -4.90    4.40 
  -6 -10  14    3.20    5.60 
  -5 -10  14    7.60    5.30 
  -5 -10  14    1.00    5.50 
  -4 -10  14   31.80    7.10 
  -4 -10  14   18.90    6.00 
  -3 -10  14   -1.10    4.50 
  -3 -10  14    1.30    4.10 
  -2 -10  14    3.60    3.70 
  -1 -10  14    8.70    4.40 
  -1 -10  14   17.30    4.20 
   0 -10  14   13.20    4.50 
   0 -10  14   18.20    5.30 
   1 -10  14    2.90    3.40 
   2 -10  14   14.50    3.90 
   3 -10  14    2.80    3.60 
   4 -10  14    1.50    3.30 
   5 -10  14    2.60    4.10 
   6 -10  14   -4.20    4.30 
   7 -10  14   -4.00    4.50 
  -7  -9  14   -5.80    5.70 
  -6  -9  14    0.00    4.80 
  -5  -9  14   -4.20    4.60 
  -4  -9  14    3.80    4.00 
  -3  -9  14    1.90    3.60 
  -2  -9  14    6.00    3.60 
  -1  -9  14    2.40    3.10 
  -1  -9  14   -3.40    3.60 
   0  -9  14    7.40    3.30 
   1  -9  14    0.90    3.10 
   1  -9  14   -2.20    5.40 
   2  -9  14    4.00    3.90 
   2  -9  14    2.70    3.30 
   3  -9  14    2.50    3.40 
   4  -9  14   10.50    3.80 
   5  -9  14   15.50    4.50 
   6  -9  14   -4.20    3.80 
   7  -9  14   -6.00    4.60 
  -7  -8  14   -8.40    6.40 
  -6  -8  14   -6.20    4.70 
  -6  -8  14    7.30    4.70 
  -5  -8  14    6.40    4.70 
  -5  -8  14    1.20    4.30 
  -4  -8  14   24.70    5.50 
  -4  -8  14   28.40    6.10 
  -3  -8  14   -2.50    3.60 
  -3  -8  14    0.70    3.40 
  -2  -8  14   31.20    5.60 
  -2  -8  14   24.80    5.10 
  -1  -8  14    3.90    3.00 
   0  -8  14   46.50    7.70 
   0  -8  14   57.89    7.40 
   1  -8  14   81.99   10.60 
   1  -8  14   92.39   11.10 
   2  -8  14  228.78   26.50 
   2  -8  14  265.97   25.80 
   3  -8  14  130.89   15.00 
   4  -8  14   -2.40    3.10 
   5  -8  14    0.70    3.50 
   6  -8  14    3.00    4.10 
   7  -8  14    5.60    5.20 
  -7  -7  14    1.40    4.80 
  -6  -7  14    0.30    4.40 
  -5  -7  14   -1.10    3.80 
  -5  -7  14    5.20    3.80 
  -4  -7  14   -0.70    3.30 
  -3  -7  14    2.30    3.20 
  -2  -7  14   -0.50    3.30 
  -2  -7  14    3.60    2.90 
  -1  -7  14   18.10    4.80 
  -1  -7  14   22.40    4.70 
   0  -7  14   14.70    5.90 
   0  -7  14   17.70    4.60 
   1  -7  14   18.20    5.10 
   1  -7  14   29.70    5.20 
   2  -7  14    0.10    3.00 
   3  -7  14    4.80    3.00 
   4  -7  14    9.80    3.50 
   5  -7  14   -0.70    3.30 
   6  -7  14    1.40    4.20 
  -8  -6  14   -5.90    5.60 
  -7  -6  14   -1.50    4.80 
  -7  -6  14    2.90    4.30 
  -6  -6  14    3.30    4.30 
  -6  -6  14   12.90    4.30 
  -5  -6  14    2.70    3.90 
  -4  -6  14   17.30    4.90 
  -4  -6  14   27.30    5.50 
  -3  -6  14   -0.90    3.20 
  -3  -6  14    5.60    3.20 
  -2  -6  14  114.19   12.90 
  -2  -6  14  103.59   12.30 
  -1  -6  14   60.19    7.90 
  -1  -6  14   58.29    8.10 
   0  -6  14  149.69   18.10 
   0  -6  14  177.68   18.60 
   1  -6  14    5.90    3.20 
   1  -6  14   -2.10    2.80 
   2  -6  14   29.10    4.90 
   2  -6  14   16.20    4.50 
   3  -6  14   -2.10    2.80 
   4  -6  14    8.60    3.30 
   6  -6  14   -0.80    4.60 
   8  -6  14   -6.60    5.90 
  -9  -5  14   -8.20    6.40 
  -8  -5  14    3.40    5.10 
  -7  -5  14    2.90    4.70 
  -7  -5  14   -3.50    4.10 
  -6  -5  14   -2.00    3.90 
  -6  -5  14   -3.10    3.60 
  -5  -5  14    4.00    3.50 
  -5  -5  14   -3.30    3.60 
  -4  -5  14    1.50    3.50 
  -4  -5  14   -1.80    3.20 
  -3  -5  14   14.60    4.20 
  -3  -5  14   10.60    3.60 
  -2  -5  14   10.10    3.70 
  -2  -5  14   13.10    3.90 
  -1  -5  14   25.00    6.70 
  -1  -5  14   19.30    5.20 
   0  -5  14   28.80    6.10 
   0  -5  14   17.70    4.90 
   1  -5  14   19.60    5.00 
   2  -5  14    5.90    3.40 
   2  -5  14   -0.30    2.70 
   3  -5  14    3.20    3.00 
   3  -5  14    3.10    3.90 
   4  -5  14   27.20    5.70 
   5  -5  14   -1.70    3.60 
   6  -5  14   -0.10    5.20 
   8  -5  14   -3.00    6.10 
 -10  -4  14   -6.00    6.20 
  -9  -4  14   -4.30    4.90 
  -8  -4  14   -2.80    5.10 
  -7  -4  14    4.40    4.40 
  -7  -4  14   -1.40    4.00 
  -6  -4  14   -0.50    3.60 
  -6  -4  14    2.70    4.80 
  -5  -4  14   38.60    8.80 
  -5  -4  14   26.30    5.50 
  -4  -4  14  128.49   15.70 
  -4  -4  14  122.89   14.10 
  -3  -4  14   34.60    7.60 
  -3  -4  14   34.60    5.50 
  -2  -4  14   30.30    5.60 
  -2  -4  14   21.40    6.10 
  -1  -4  14   96.39   12.40 
  -1  -4  14   89.29   12.40 
   0  -4  14  169.18   19.60 
   0  -4  14  183.98   19.70 
   1  -4  14  392.96   42.60 
   1  -4  14  420.76   41.80 
   2  -4  14    2.70    2.70 
   2  -4  14    8.60    3.50 
   3  -4  14   23.10    5.40 
   4  -4  14   24.90    5.80 
   5  -4  14   -1.10    3.90 
   6  -4  14   -4.10    4.90 
   8  -4  14    4.10    5.60 
   8  -4  14    3.90    6.40 
 -11  -3  14   -5.90    6.30 
 -10  -3  14    2.40    6.70 
  -9  -3  14    6.00    5.30 
  -9  -3  14   -0.20    4.90 
  -8  -3  14   -0.60    4.30 
  -8  -3  14   -0.10    5.30 
  -7  -3  14   -4.40    3.80 
  -7  -3  14    1.90    6.10 
  -6  -3  14    2.90    3.60 
  -6  -3  14    4.30    4.60 
  -5  -3  14   24.80    5.40 
  -5  -3  14   34.20    6.20 
  -4  -3  14    9.20    3.30 
  -4  -3  14    6.00    3.40 
  -3  -3  14   29.70    5.30 
  -3  -3  14   24.20    5.40 
  -2  -3  14   19.40    5.00 
  -2  -3  14   18.10    5.10 
  -1  -3  14    6.80    3.90 
  -1  -3  14    9.30    5.70 
   0  -3  14   50.39    8.50 
   0  -3  14   46.80    8.30 
   1  -3  14   43.60    7.30 
   1  -3  14   57.79    7.20 
   2  -3  14    7.50    3.60 
   2  -3  14   -1.60    2.90 
   3  -3  14    6.50    3.60 
   3  -3  14    9.30    3.60 
   6  -3  14   -0.70    4.80 
   7  -3  14   -3.30    4.90 
   8  -3  14    5.50    5.70 
   8  -3  14    3.40    4.90 
 -11  -2  14   -0.70    6.20 
 -10  -2  14    7.10    6.00 
 -10  -2  14   -0.80    5.30 
  -9  -2  14    8.20    7.60 
  -9  -2  14    6.00    4.60 
  -8  -2  14   -1.50    4.80 
  -8  -2  14   -4.30    4.00 
  -7  -2  14   -2.60    3.50 
  -7  -2  14    2.00    4.00 
  -6  -2  14  116.49   13.10 
  -6  -2  14   97.99   12.30 
  -5  -2  14    1.70    3.10 
  -5  -2  14    2.50    3.10 
  -4  -2  14   -1.40    2.80 
  -4  -2  14   -0.90    3.00 
  -3  -2  14   17.40    4.50 
  -3  -2  14   14.20    4.20 
  -2  -2  14   41.70    6.30 
  -2  -2  14   43.80    6.60 
  -1  -2  14   83.89   11.60 
  -1  -2  14   77.29   10.00 
   0  -2  14   14.90    5.40 
   0  -2  14   25.00    6.30 
   1  -2  14   26.00    6.40 
   1  -2  14   34.90    6.30 
   2  -2  14  122.59   13.40 
   2  -2  14  112.69   13.90 
   3  -2  14   -1.00    3.70 
   3  -2  14   -3.60    3.70 
   4  -2  14   -3.30    4.00 
   4  -2  14    0.00    4.20 
   5  -2  14   -2.60    4.20 
   6  -2  14    2.80    4.70 
   7  -2  14    8.00    5.20 
   8  -2  14   45.10    9.80 
 -12  -1  14    3.50    6.60 
 -11  -1  14   15.10    9.70 
 -11  -1  14    0.40    6.70 
 -10  -1  14    4.30    4.70 
 -10  -1  14    3.00    6.00 
  -9  -1  14    2.50    5.40 
  -9  -1  14    2.20    4.10 
  -8  -1  14    2.30    3.70 
  -8  -1  14    7.50    4.80 
  -7  -1  14    2.90    3.60 
  -7  -1  14    2.30    3.60 
  -6  -1  14   63.29    8.20 
  -6  -1  14   62.99    8.60 
  -5  -1  14   18.70    4.30 
  -5  -1  14   11.70    4.10 
  -4  -1  14   10.80    3.60 
  -4  -1  14   12.40    3.50 
  -3  -1  14   -1.60    2.50 
  -3  -1  14    0.10    3.10 
  -2  -1  14   -4.30    3.60 
  -2  -1  14    2.20    2.50 
  -1  -1  14   15.60    4.50 
  -1  -1  14    9.60    4.40 
   0  -1  14   16.00    5.30 
   0  -1  14   19.60    7.30 
   1  -1  14   47.30    8.90 
   1  -1  14   27.40    7.40 
   2  -1  14   -3.50    3.80 
   2  -1  14    4.80    5.10 
   3  -1  14    0.80    4.70 
   3  -1  14    0.40    4.30 
   4  -1  14    0.60    4.30 
   4  -1  14   10.00    5.00 
   6  -1  14    7.50    5.00 
   7  -1  14   31.20    8.00 
 -12   0  14    0.00    6.30 
 -11   0  14    0.60    5.90 
 -10   0  14   16.10    5.30 
 -10   0  14   22.20    6.20 
  -9   0  14    2.60    4.20 
  -9   0  14    1.70    3.90 
  -8   0  14    2.60    4.00 
  -8   0  14    0.00    3.80 
  -7   0  14   41.10    6.80 
  -7   0  14   40.90    6.30 
  -6   0  14   31.80    6.10 
  -6   0  14   37.90    5.80 
  -5   0  14  135.59   15.30 
  -5   0  14  138.69   15.40 
  -4   0  14    2.60    3.20 
  -4   0  14    3.70    2.80 
  -3   0  14    9.20    3.00 
  -3   0  14    8.40    3.90 
  -2   0  14    8.40    3.20 
  -2   0  14    9.70    3.70 
  -1   0  14    0.10    3.70 
  -1   0  14   -0.50    2.90 
   0   0  14   91.49   11.20 
   0   0  14   79.09   11.80 
   1   0  14  130.89   15.10 
   1   0  14  109.49   15.00 
   2   0  14    3.80    5.50 
   2   0  14    3.40    4.40 
   3   0  14    8.90    7.50 
   3   0  14    4.70    4.10 
   4   0  14    1.30    4.10 
   4   0  14    4.00    6.80 
   5   0  14   24.70    6.70 
   6   0  14    6.70    4.60 
   7   0  14   83.29   12.50 
 -12   1  14   18.90    7.50 
 -11   1  14    1.60    5.40 
 -10   1  14    0.80    4.70 
  -9   1  14    1.60    3.40 
  -9   1  14    5.60    4.00 
  -8   1  14   66.89    9.10 
  -8   1  14   73.49    9.20 
  -7   1  14   24.20    4.80 
  -7   1  14   19.00    4.60 
  -6   1  14   37.70    6.50 
  -6   1  14   42.30    6.20 
  -5   1  14    0.70    3.40 
  -5   1  14    1.50    2.90 
  -4   1  14    0.70    2.90 
  -4   1  14   -1.30    3.40 
  -3   1  14    0.70    3.00 
  -3   1  14    2.50    3.30 
  -2   1  14    4.40    3.60 
  -2   1  14    7.70    3.70 
  -1   1  14    2.80    3.30 
  -1   1  14    3.30    3.80 
   0   1  14   38.90    6.40 
   0   1  14   37.20    9.30 
   1   1  14   20.50    6.40 
   1   1  14   27.70    6.10 
   2   1  14    6.90    4.50 
   2   1  14   -0.90    4.00 
   3   1  14    3.50    4.60 
   3   1  14    3.40    3.90 
   4   1  14   15.00    4.60 
   4   1  14   14.20    5.80 
   6   1  14   32.70    8.30 
   7   1  14   89.19   13.90 
 -12   2  14    8.70    6.60 
 -11   2  14   24.80    7.00 
 -10   2  14    6.70    4.50 
  -9   2  14    1.50    3.70 
  -8   2  14    7.30    3.70 
  -7   2  14  106.19   11.80 
  -7   2  14   92.09   11.20 
  -6   2  14   -0.30    2.90 
  -6   2  14    2.80    3.60 
  -5   2  14   -3.50    3.70 
  -5   2  14    1.30    3.10 
  -4   2  14   38.30    6.90 
  -4   2  14   49.40    6.50 
  -3   2  14   10.10    4.50 
  -3   2  14   15.20    3.90 
  -2   2  14   -1.10    3.50 
  -1   2  14    7.00    4.70 
  -1   2  14   13.80    4.10 
   0   2  14    1.50    4.00 
   0   2  14   -2.90    5.80 
   1   2  14   95.09   11.10 
   1   2  14   88.09   12.10 
   2   2  14    8.80    4.60 
   2   2  14   -3.50    3.50 
   3   2  14    9.60    3.90 
   3   2  14    2.50    4.80 
   6   2  14   61.09   11.20 
 -13   3  14   35.20    8.90 
 -12   3  14    7.60    6.60 
 -11   3  14   11.40    5.00 
 -10   3  14    7.90    4.30 
  -9   3  14   31.70    6.20 
  -8   3  14   14.90    4.50 
  -7   3  14   13.60    3.40 
  -6   3  14   22.00    4.80 
  -6   3  14    5.40    4.00 
  -5   3  14    6.30    3.50 
  -4   3  14    7.10    4.20 
  -3   3  14   11.00    3.90 
  -3   3  14    7.60    4.50 
  -2   3  14   -0.50    3.70 
  -2   3  14   -2.30    3.90 
  -1   3  14   66.19    9.80 
  -1   3  14   70.09    9.30 
   0   3  14    5.10    3.40 
   0   3  14    3.80    6.00 
   1   3  14    5.10    3.70 
   1   3  14    1.00    4.30 
   2   3  14   30.00    6.50 
   2   3  14    5.40    5.10 
   6   3  14   85.09   13.90 
 -12   4  14   18.90    7.30 
 -11   4  14   33.70    7.50 
 -10   4  14    8.50    5.20 
  -9   4  14   14.70    4.70 
  -8   4  14   42.70    7.40 
  -7   4  14    4.90    3.90 
  -6   4  14    6.40    3.50 
  -6   4  14   -0.80    2.90 
  -5   4  14   25.30    5.30 
  -5   4  14   15.50    4.40 
  -4   4  14    2.90    3.80 
  -4   4  14   11.90    4.20 
  -3   4  14    6.00    3.60 
  -3   4  14    2.60    3.90 
  -2   4  14   20.70    5.60 
  -2   4  14   27.60    5.90 
  -1   4  14  204.98   22.80 
  -1   4  14  212.38   23.30 
   0   4  14   13.50    4.80 
   0   4  14    5.70    4.30 
   5   4  14   55.59   11.60 
 -13   5  14   15.00    7.70 
 -12   5  14    2.10    7.20 
 -11   5  14   11.70    6.00 
 -10   5  14    6.10    5.40 
  -9   5  14   18.80    5.40 
  -8   5  14    6.30    3.90 
  -7   5  14   11.20    4.20 
  -5   5  14   67.69    8.70 
  -4   5  14   45.40    7.30 
  -2   5  14   20.80    5.40 
  -1   5  14   22.90    9.80 
 -12   6  14    8.30    7.50 
 -11   6  14    3.40    5.90 
 -10   6  14    8.70    5.20 
  -9   6  14   -0.80    4.40 
  -8   6  14   -2.20    4.30 
  -7   6  14    3.60    4.40 
  -6   6  14   -1.30    4.20 
  -5   6  14  115.19   13.00 
  -4   6  14  106.09   10.40 
  -4   6  14   35.00    9.50 
  -2   6  14   42.80    7.10 
  -1   6  14   44.50   11.60 
   1   6  14   49.30   10.30 
   2   6  14   31.20    8.80 
   2   6  14   -0.50    6.30 
   3   6  14   66.69   12.60 
   4   6  14    2.50    8.20 
 -12   7  14   14.80    7.20 
 -11   7  14    6.90    6.50 
 -10   7  14    4.70    5.30 
  -9   7  14   13.70    5.50 
  -8   7  14    3.00    4.60 
  -7   7  14    3.90    4.10 
  -6   7  14    2.80    4.50 
  -5   7  14    9.20    4.70 
  -4   7  14   53.79    7.80 
  -4   7  14   13.90    6.10 
  -3   7  14   48.30   10.10 
  -2   7  14    3.00    5.10 
  -2   7  14   25.30    9.00 
   0   7  14   -2.60    5.80 
   0   7  14   21.00    8.10 
   1   7  14   38.50   11.30 
   2   7  14    6.10    7.20 
   2   7  14   15.80    8.40 
   3   7  14   49.20   11.40 
   3   7  14    3.10    9.00 
 -12   8  14    1.70    7.50 
 -11   8  14    1.40    7.10 
 -10   8  14    5.20    6.50 
  -9   8  14    5.30    5.30 
  -8   8  14   11.40    5.10 
  -7   8  14   48.80    8.90 
  -6   8  14   11.30    5.10 
  -5   8  14    1.30    5.20 
  -4   8  14   14.60    6.20 
  -4   8  14   26.20    6.80 
  -3   8  14   47.40    8.50 
  -2   8  14   81.49   12.70 
  -2   8  14  110.89   15.60 
  -1   8  14   -4.90    5.90 
  -1   8  14   20.60    7.30 
   0   8  14   46.40   11.40 
   1   8  14   58.79   13.70 
   2   8  14   50.79   14.20 
 -11   9  14   10.90    7.30 
 -10   9  14    0.10    6.90 
  -9   9  14    6.50    6.30 
  -8   9  14    6.50    6.20 
  -7   9  14    6.60    5.50 
  -6   9  14    2.40    5.70 
  -5   9  14   26.90    6.90 
  -4   9  14    4.10    5.60 
  -3   9  14    4.60    5.80 
  -3   9  14    8.50    6.90 
  -2   9  14   16.30    6.80 
  -2   9  14   15.50    5.80 
  -1   9  14    6.30    8.40 
  -1   9  14    8.00    6.50 
   0   9  14   14.90    7.90 
   0   9  14   -3.70    7.70 
   1   9  14    8.20    8.90 
 -11  10  14    8.60    7.60 
 -10  10  14    4.00    7.20 
  -9  10  14    1.20    7.80 
  -8  10  14    3.70    8.10 
  -7  10  14    1.50    7.80 
  -6  10  14    4.20    5.70 
  -5  10  14    0.90    6.80 
  -4  10  14   11.40    7.50 
  -3  10  14   11.00    8.60 
  -3  10  14   25.50   10.80 
  -2  10  14   14.30    6.10 
  -2  10  14   -0.10    7.10 
  -1  10  14    4.00    7.80 
  -1  10  14   11.90    7.50 
 -10  11  14    1.30    7.50 
  -9  11  14    4.90    7.60 
  -8  11  14    2.20    7.60 
  -7  11  14   -3.20    6.10 
  -6  11  14    7.60    7.70 
  -5  11  14   -1.70    7.50 
  -4  11  14    4.80    7.50 
  -3  11  14   10.50    8.10 
  -7  12  14    8.10    7.60 
  -6  12  14    3.70    7.70 
   0 -13  15    4.40    5.20 
   1 -13  15    1.40    5.20 
   2 -13  15   -2.10    5.00 
   3 -13  15    3.10    5.20 
  -3 -12  15   -4.20    6.50 
  -2 -12  15   22.30    5.70 
  -2 -12  15   12.30    6.10 
   0 -12  15    6.50    4.60 
   1 -12  15    6.10    4.70 
   2 -12  15    5.40    4.40 
   3 -12  15   97.89   13.00 
   4 -12  15   19.50    5.30 
   5 -12  15   -5.70    4.80 
  -4 -11  15   -1.80    6.30 
  -4 -11  15    8.20    5.30 
  -3 -11  15    1.20    4.60 
  -2 -11  15   -0.50    4.40 
  -1 -11  15    5.30    4.10 
   0 -11  15    0.40    4.00 
   1 -11  15   -0.10    3.80 
   2 -11  15    9.10    4.30 
   3 -11  15    1.30    4.30 
   4 -11  15   -3.60    4.00 
   5 -11  15   -3.80    4.60 
   6 -11  15   -3.50    4.60 
  -5 -10  15    1.80    5.20 
  -4 -10  15    3.70    6.00 
  -4 -10  15    8.70    4.90 
  -3 -10  15    8.60    4.70 
  -3 -10  15   -6.00    4.70 
  -2 -10  15   12.60    4.20 
  -2 -10  15    4.10    4.90 
  -1 -10  15   -0.20    3.70 
   0 -10  15    2.80    3.70 
   1 -10  15   22.60    5.60 
   1 -10  15   17.30    4.50 
   2 -10  15    5.20    3.70 
   3 -10  15   -3.70    3.70 
   4 -10  15    6.60    4.10 
   5 -10  15   -5.20    4.10 
   6 -10  15    2.30    4.60 
  -6  -9  15    2.20    5.90 
  -5  -9  15    2.80    4.80 
  -4  -9  15   -0.10    4.30 
  -3  -9  15    5.00    3.90 
  -2  -9  15   -4.30    4.10 
  -2  -9  15    1.20    3.50 
  -1  -9  15    0.80    3.50 
   0  -9  15    1.10    3.40 
   1  -9  15    1.90    3.50 
   1  -9  15    8.40    4.90 
   2  -9  15   10.80    3.90 
   3  -9  15   11.50    3.70 
   4  -9  15   -2.70    4.00 
   5  -9  15   -3.20    3.80 
   6  -9  15   -3.70    4.20 
  -7  -8  15   -4.10    6.40 
  -7  -8  15    2.90    5.90 
  -6  -8  15    6.00    4.80 
  -5  -8  15   -0.70    4.30 
  -4  -8  15   31.50    6.80 
  -4  -8  15   29.00    6.40 
  -3  -8  15   -2.40    4.10 
  -3  -8  15    2.00    3.70 
  -2  -8  15    6.10    3.40 
  -2  -8  15    3.30    4.00 
  -1  -8  15   -1.80    3.20 
   0  -8  15    9.60    4.00 
   0  -8  15    7.10    3.50 
   1  -8  15   19.40    4.20 
   2  -8  15   34.50    6.30 
   3  -8  15    6.00    3.40 
   4  -8  15    2.50    3.70 
   5  -8  15   -4.70    3.60 
  -8  -7  15   -5.30    5.80 
  -8  -7  15    6.50    6.40 
  -7  -7  15    2.00    5.60 
  -6  -7  15    2.70    4.40 
  -5  -7  15    1.90    4.10 
  -4  -7  15    1.90    4.00 
  -4  -7  15    3.20    3.70 
  -3  -7  15    5.40    3.30 
  -3  -7  15   -5.10    3.70 
  -2  -7  15   -3.90    3.50 
  -2  -7  15   -0.20    3.30 
  -1  -7  15    0.90    3.40 
  -1  -7  15   -1.00    3.10 
   0  -7  15    9.60    4.80 
   0  -7  15    2.20    3.30 
   1  -7  15   17.90    5.30 
   1  -7  15   11.50    3.50 
   2  -7  15   44.90    6.90 
   3  -7  15    4.20    3.40 
   5  -7  15   -4.40    3.90 
   6  -7  15   -1.00    5.00 
  -9  -6  15    2.80    6.90 
  -8  -6  15   -1.90    6.00 
  -8  -6  15   -8.50    6.70 
  -7  -6  15    4.40    4.80 
  -6  -6  15    2.20    4.20 
  -5  -6  15   15.10    4.90 
  -5  -6  15   14.60    4.40 
  -4  -6  15    1.90    3.40 
  -4  -6  15   -2.90    3.70 
  -3  -6  15    2.10    3.20 
  -2  -6  15    5.00    3.00 
  -2  -6  15    3.80    3.50 
  -1  -6  15   15.70    4.20 
  -1  -6  15   28.80    5.40 
   0  -6  15   58.29    8.90 
   0  -6  15   44.50    7.40 
   1  -6  15    7.80    4.60 
   1  -6  15   -0.70    2.80 
   2  -6  15   38.70    5.70 
   2  -6  15   26.20    5.80 
   3  -6  15   38.10    6.50 
   4  -6  15   10.40    3.80 
  -9  -5  15   -0.30    6.60 
  -9  -5  15    9.30    6.80 
  -8  -5  15    7.20    6.60 
  -7  -5  15    0.90    4.90 
  -7  -5  15   -2.90    4.50 
  -6  -5  15    1.50    4.20 
  -5  -5  15   -1.60    3.80 
  -5  -5  15    2.20    3.50 
  -4  -5  15   -1.30    3.60 
  -4  -5  15    7.20    3.50 
  -3  -5  15    5.60    3.40 
  -3  -5  15    5.50    3.30 
  -2  -5  15    0.00    3.20 
  -2  -5  15    4.20    3.80 
  -1  -5  15    7.50    3.80 
  -1  -5  15    5.90    3.30 
   0  -5  15    5.10    5.70 
   1  -5  15   16.10    4.70 
   2  -5  15   12.40    4.00 
   2  -5  15    4.60    3.10 
   3  -5  15    0.70    3.10 
 -10  -4  15    3.90    6.80 
 -10  -4  15    4.30    7.20 
  -9  -4  15   18.50    7.40 
  -9  -4  15   17.10    7.20 
  -8  -4  15   -1.40    5.20 
  -8  -4  15    0.20    5.10 
  -7  -4  15   -3.70    4.10 
  -7  -4  15   11.30    5.30 
  -6  -4  15   40.40    7.60 
  -6  -4  15   37.60    6.80 
  -5  -4  15    1.90    3.70 
  -5  -4  15   -1.10    3.80 
  -4  -4  15   -0.10    3.30 
  -4  -4  15    5.10    3.80 
  -3  -4  15   14.00    4.00 
  -3  -4  15   10.30    4.30 
  -2  -4  15   24.90    6.10 
  -2  -4  15   28.60    5.20 
  -1  -4  15   -1.60    3.20 
  -1  -4  15    4.70    3.70 
   0  -4  15    4.90    6.70 
   0  -4  15    1.20    3.10 
   1  -4  15  198.08   20.90 
   1  -4  15  185.08   21.00 
   2  -4  15   66.79    7.90 
   2  -4  15   48.50    7.90 
   3  -4  15    0.40    5.60 
   4  -4  15    9.90    4.70 
 -11  -3  15   -7.90    6.20 
 -10  -3  15   12.40    6.90 
 -10  -3  15    8.60    7.20 
  -9  -3  15    0.60    5.50 
  -9  -3  15    0.50    5.10 
  -8  -3  15    9.60    5.10 
  -8  -3  15    5.40    4.70 
  -7  -3  15   -2.50    4.00 
  -7  -3  15   -0.30    5.20 
  -6  -3  15    2.40    3.80 
  -6  -3  15    4.50    7.10 
  -5  -3  15   25.00    6.60 
  -5  -3  15   21.00    5.30 
  -4  -3  15    5.20    4.80 
  -4  -3  15    9.20    3.80 
  -3  -3  15   12.40    3.70 
  -3  -3  15   10.50    5.50 
  -2  -3  15   25.20    7.00 
  -2  -3  15   26.70    5.10 
  -1  -3  15   -0.40    3.40 
  -1  -3  15   10.30    4.00 
   0  -3  15    5.40    5.40 
   0  -3  15    2.20    3.10 
   1  -3  15   14.10    6.10 
   1  -3  15    6.90    3.20 
   2  -3  15   15.90    4.70 
   2  -3  15    7.50    3.90 
   3  -3  15    7.00    4.20 
   3  -3  15   -2.20    3.70 
   7  -3  15   -1.90    6.20 
 -11  -2  15   -0.70    9.60 
 -11  -2  15   -5.10    6.10 
 -10  -2  15    4.90    5.90 
 -10  -2  15   -1.10    6.60 
  -9  -2  15    5.50    7.90 
  -9  -2  15   -0.40    4.60 
  -8  -2  15    3.20    6.40 
  -8  -2  15   -3.60    4.00 
  -7  -2  15    8.00    4.20 
  -7  -2  15    4.30    4.90 
  -6  -2  15   17.50    4.70 
  -6  -2  15   24.40    6.40 
  -5  -2  15    1.60    3.60 
  -5  -2  15   -1.80    3.60 
  -4  -2  15   37.70    6.10 
  -4  -2  15   40.70    6.80 
  -3  -2  15   32.60    5.40 
  -3  -2  15   32.50    6.80 
  -2  -2  15   33.10    5.80 
  -2  -2  15   21.90    5.80 
  -1  -2  15   36.20    8.20 
  -1  -2  15   36.80    6.50 
   0  -2  15    3.00    3.40 
   0  -2  15    4.30    4.80 
   1  -2  15   13.70    6.80 
   1  -2  15   10.60    3.70 
   2  -2  15   19.10    5.10 
   2  -2  15   36.00    8.00 
   3  -2  15    5.00    4.70 
   5  -2  15   -3.80    4.70 
   6  -2  15   -3.60    5.10 
   7  -2  15   10.00    5.70 
 -11  -1  15    7.10    6.40 
 -10  -1  15   29.10    8.00 
 -10  -1  15   23.40    8.80 
  -9  -1  15    3.70    5.60 
  -9  -1  15   -1.30    4.50 
  -8  -1  15   -2.30    4.50 
  -8  -1  15    4.10    4.40 
  -7  -1  15    1.30    4.20 
  -7  -1  15    5.00    4.20 
  -6  -1  15   23.40    5.20 
  -6  -1  15   20.10    5.90 
  -5  -1  15   18.00    4.50 
  -5  -1  15   23.80    4.80 
  -4  -1  15    9.20    3.50 
  -4  -1  15   10.40    3.50 
  -3  -1  15    4.70    3.70 
  -3  -1  15    0.50    3.10 
  -2  -1  15   12.90    4.10 
  -2  -1  15   16.40    4.10 
  -1  -1  15    1.00    4.70 
  -1  -1  15    1.70    3.60 
   0  -1  15    5.70    4.20 
   0  -1  15    3.40    4.10 
   1  -1  15    7.30    4.70 
   1  -1  15   14.30    5.20 
   2  -1  15   -3.70    4.20 
   2  -1  15   -1.00    5.10 
   3  -1  15    1.20    4.70 
   3  -1  15   -0.30    7.10 
   4  -1  15   -2.60    4.60 
   4  -1  15    6.30   10.50 
   5  -1  15   -0.20    4.70 
   6  -1  15    4.80    5.50 
   7  -1  15   32.70    9.40 
 -12   0  15    5.90    6.30 
 -11   0  15    7.10    6.80 
 -10   0  15    9.60    5.70 
  -9   0  15    4.60    4.70 
  -9   0  15   -1.90    3.90 
  -8   0  15   15.30    4.60 
  -8   0  15   10.70    4.20 
  -7   0  15   17.50    4.90 
  -7   0  15   32.00    5.70 
  -6   0  15   -1.30    3.50 
  -6   0  15    2.50    3.30 
  -5   0  15   11.60    3.90 
  -5   0  15   10.50    3.50 
  -4   0  15   37.50    6.40 
  -4   0  15   36.90    6.50 
  -3   0  15    0.10    3.70 
  -3   0  15   -0.90    2.90 
  -2   0  15   17.50    4.60 
  -2   0  15   26.10    5.00 
  -1   0  15  143.89   18.10 
  -1   0  15  160.48   16.90 
   0   0  15  187.78   22.60 
   0   0  15  215.18   22.00 
   1   0  15   28.80    7.90 
   1   0  15   45.80    7.20 
   2   0  15   -4.10    4.50 
   2   0  15    2.20    4.70 
   3   0  15   -2.10    5.20 
   3   0  15    6.90    4.70 
   4   0  15    1.30    5.70 
   4   0  15   -0.70    4.30 
   5   0  15    9.00    4.90 
   6   0  15   39.50    8.80 
 -12   1  15   14.90    6.50 
 -11   1  15    8.30    6.70 
 -10   1  15    7.60    4.80 
  -9   1  15    4.20    4.70 
  -8   1  15    9.10    3.70 
  -8   1  15    8.90    3.60 
  -7   1  15    1.90    3.60 
  -7   1  15    7.20    3.80 
  -6   1  15    7.90    3.70 
  -6   1  15    4.50    3.70 
  -5   1  15   -1.10    2.90 
  -5   1  15    3.20    3.80 
  -4   1  15    0.40    3.10 
  -4   1  15   -2.00    3.80 
  -3   1  15   50.89    8.30 
  -3   1  15   60.49    7.60 
  -2   1  15    5.60    3.90 
  -2   1  15   -3.80    3.70 
  -1   1  15   24.30    6.70 
  -1   1  15   20.70    5.50 
   0   1  15   25.10    7.00 
   0   1  15   40.40    6.40 
   1   1  15   -3.80    4.20 
   1   1  15    4.50    3.60 
   2   1  15    0.80    4.70 
   2   1  15   -3.40    4.20 
   3   1  15    2.50    4.50 
   3   1  15   -0.70    5.00 
   4   1  15    7.20    6.10 
   4   1  15    8.00    4.30 
   5   1  15   66.89   10.50 
   6   1  15   77.19   12.80 
 -12   2  15   10.90    6.00 
 -11   2  15    5.40    6.10 
 -10   2  15   10.70    4.80 
  -9   2  15   10.50    4.40 
  -8   2  15   12.30    4.40 
  -7   2  15    7.30    4.30 
  -6   2  15    3.80    4.10 
  -6   2  15    0.30    3.30 
  -5   2  15   -3.80    3.50 
  -5   2  15    4.80    3.80 
  -4   2  15   -4.00    3.50 
  -4   2  15    7.00    3.80 
  -3   2  15   11.60    4.70 
  -2   2  15  119.39   15.40 
  -2   2  15  139.09   14.90 
  -1   2  15    2.40    6.50 
  -1   2  15    4.00    4.40 
   0   2  15    0.70    4.80 
   0   2  15    7.70    4.60 
   1   2  15    3.00    4.10 
   1   2  15   -0.50    4.30 
   2   2  15    2.70    5.10 
   2   2  15    9.60    4.40 
   3   2  15   22.70    6.40 
   3   2  15   -1.20    5.50 
   5   2  15   68.49   11.40 
 -12   3  15    7.10    6.40 
 -11   3  15    7.40    6.30 
 -10   3  15    0.90    4.60 
  -9   3  15   31.50    7.30 
  -8   3  15   12.80    5.00 
  -7   3  15    1.00    4.40 
  -6   3  15    6.20    4.10 
  -5   3  15    2.30    3.80 
  -4   3  15    5.60    4.20 
  -3   3  15   17.40    4.60 
  -3   3  15    3.90    4.20 
  -2   3  15    1.00    4.30 
  -2   3  15    3.60    4.50 
  -1   3  15    7.70    4.60 
  -1   3  15    2.90    7.00 
   0   3  15    7.30    4.60 
   0   3  15    0.30    3.90 
   1   3  15    2.10    5.10 
   1   3  15   22.30    5.70 
   2   3  15   -0.60    5.60 
   2   3  15   24.70    6.70 
   5   3  15   83.09   13.10 
 -12   4  15    7.20    7.10 
 -11   4  15   57.79   11.40 
 -10   4  15   -0.30    5.30 
  -9   4  15    9.70    5.30 
  -8   4  15    0.20    4.50 
  -7   4  15    2.80    4.10 
  -6   4  15   42.00    6.30 
  -5   4  15    6.20    4.40 
  -5   4  15    2.70    3.80 
  -4   4  15   42.90    7.30 
  -4   4  15   39.40    7.30 
  -3   4  15   17.60    5.10 
  -3   4  15   14.40    4.60 
  -2   4  15   45.90    8.10 
  -2   4  15   63.39    8.80 
  -1   4  15   39.70    7.80 
   0   4  15   35.50    8.00 
 -12   5  15   18.90    7.70 
 -11   5  15   12.90    7.60 
 -10   5  15   10.50    5.70 
  -9   5  15    6.40    5.10 
  -8   5  15    2.60    4.50 
  -7   5  15    0.50    4.40 
  -6   5  15    0.80    4.30 
  -2   5  15   49.60   10.70 
 -12   6  15   19.40    7.50 
 -11   6  15    4.50    7.70 
 -10   6  15    7.30    5.60 
  -9   6  15    7.00    4.90 
  -8   6  15    5.00    5.10 
  -7   6  15    2.60    4.90 
  -6   6  15    3.50    4.50 
  -3   6  15   97.89   11.10 
  -3   6  15   28.40    9.40 
  -2   6  15   66.29   14.50 
   0   6  15   28.80    9.50 
   0   6  15   92.79   12.10 
   2   6  15   57.69   12.20 
   3   6  15    9.30    8.40 
 -12   7  15   16.50    7.70 
 -11   7  15    6.10    7.00 
 -10   7  15    7.00    7.30 
  -9   7  15    4.40    5.70 
  -8   7  15    6.50    5.40 
  -7   7  15   -0.30    4.70 
  -6   7  15   10.50    5.50 
  -5   7  15    6.80    5.30 
  -3   7  15   51.39   11.50 
  -2   7  15   60.99   13.50 
   1   7  15   71.39   14.80 
   2   7  15   59.19   14.10 
 -11   8  15    6.60    7.20 
 -10   8  15   15.40    7.80 
  -9   8  15    2.40    6.40 
  -8   8  15   26.30    7.30 
  -7   8  15   11.60    6.90 
  -6   8  15    5.40    5.60 
  -5   8  15    9.80    6.20 
  -4   8  15    6.80    4.90 
  -3   8  15   53.49   13.90 
  -1   8  15   44.00   11.30 
   0   8  15   11.70    8.40 
   0   8  15   -2.60    7.90 
   1   8  15   -0.80    8.80 
 -11   9  15    9.40    7.60 
 -10   9  15    9.30    6.90 
  -9   9  15    6.70    7.00 
  -8   9  15    5.10    7.80 
  -7   9  15   -0.40    7.30 
  -6   9  15   -3.10    7.10 
  -5   9  15    4.50    5.80 
  -4   9  15   -4.20    7.00 
  -3   9  15   -8.20    7.80 
  -3   9  15   13.80    8.50 
  -2   9  15   32.60    9.20 
  -2   9  15    1.10    8.30 
  -1   9  15   15.10    7.90 
  -1   9  15   10.00    8.10 
 -10  10  15   -2.00    7.60 
  -9  10  15    5.60    7.10 
  -8  10  15    7.30    7.80 
  -7  10  15    9.80    8.50 
  -6  10  15   -0.60    5.80 
  -5  10  15    8.50    7.30 
  -4  10  15    2.60    7.20 
  -3  10  15    9.50    7.80 
  -2  10  15   -2.60    7.40 
  -8  11  15   13.00    8.50 
  -7  11  15    8.10    6.60 
  -6  11  15    0.30    7.70 
  -5  11  15    3.30    7.60 
  -1 -12  16   10.10    5.40 
   0 -12  16    6.80    4.80 
   1 -12  16    1.60    4.80 
   2 -12  16   12.60    5.30 
   3 -12  16   11.90    5.80 
  -3 -11  16   -4.90    5.10 
  -2 -11  16    3.50    4.60 
  -1 -11  16    1.50    4.60 
   0 -11  16    6.60    4.40 
   1 -11  16   -2.10    4.40 
   2 -11  16    0.90    4.50 
   3 -11  16    2.90    4.70 
   4 -11  16    5.00    4.70 
   5 -11  16   -2.70    5.00 
  -5 -10  16   -5.30    5.40 
  -4 -10  16   -5.90    4.80 
  -3 -10  16    0.20    4.30 
  -2 -10  16    4.80    4.30 
  -1 -10  16   10.00    4.40 
   0 -10  16   22.70    6.50 
   0 -10  16   18.40    5.40 
   1 -10  16    7.20    4.20 
   2 -10  16   -1.00    4.00 
   3 -10  16   14.10    4.70 
   4 -10  16   -1.20    4.60 
   5 -10  16   -2.30    4.70 
  -6  -9  16   -5.90    5.40 
  -5  -9  16    5.30    5.00 
  -4  -9  16    4.80    4.40 
  -3  -9  16    5.40    4.20 
  -2  -9  16    2.80    4.00 
  -1  -9  16   -1.70    3.70 
   0  -9  16    0.40    4.00 
   0  -9  16   -0.90    4.20 
   1  -9  16   27.20    8.50 
   1  -9  16    4.20    4.00 
   2  -9  16    3.00    3.80 
   3  -9  16    7.00    4.10 
   4  -9  16   -4.60    4.00 
   5  -9  16   -2.50    4.50 
  -7  -8  16    2.90    6.00 
  -6  -8  16   -5.00    4.90 
  -6  -8  16   -8.80    6.40 
  -5  -8  16    2.20    4.60 
  -4  -8  16   -0.30    4.30 
  -3  -8  16   23.40    5.80 
  -3  -8  16   29.20    6.30 
  -2  -8  16   27.40    5.80 
  -2  -8  16   24.70    5.80 
  -1  -8  16   -0.80    4.00 
  -1  -8  16    5.00    3.50 
   0  -8  16   13.60    4.70 
   0  -8  16    4.60    3.90 
   1  -8  16   32.50    7.00 
   2  -8  16   82.99   10.70 
   3  -8  16    7.50    3.90 
   4  -8  16   -3.70    4.10 
   5  -8  16    3.00    4.40 
   6  -8  16   -7.20    5.40 
  -8  -7  16    9.60    7.20 
  -7  -7  16   -4.30    7.10 
  -7  -7  16   -3.30    5.70 
  -6  -7  16    9.50    5.00 
  -5  -7  16    7.90    4.20 
  -5  -7  16   -5.50    4.60 
  -4  -7  16   -5.70    4.40 
  -4  -7  16    4.40    3.80 
  -3  -7  16   -0.50    4.00 
  -3  -7  16    3.40    3.70 
  -2  -7  16    6.40    3.40 
  -2  -7  16    2.00    4.00 
  -1  -7  16    6.80    4.30 
  -1  -7  16    6.30    3.90 
   0  -7  16    7.50    4.10 
   0  -7  16   -1.20    3.50 
   1  -7  16   28.40    8.20 
   2  -7  16    1.00    3.60 
   3  -7  16   -1.90    3.70 
   4  -7  16    0.40    3.80 
  -8  -6  16   -1.40    6.20 
  -8  -6  16   -8.30    6.30 
  -7  -6  16    7.20    5.50 
  -6  -6  16   -3.00    4.80 
  -6  -6  16    6.00    4.70 
  -5  -6  16    1.70    3.90 
  -5  -6  16   -5.80    4.40 
  -4  -6  16    3.90    3.80 
  -3  -6  16    5.90    4.00 
  -3  -6  16    5.90    3.70 
  -2  -6  16    0.60    3.30 
  -2  -6  16    3.10    3.90 
  -1  -6  16    7.50    3.90 
  -1  -6  16   -0.20    3.40 
   0  -6  16   31.90    5.80 
   0  -6  16   17.60    4.50 
   1  -6  16    4.20    3.50 
   1  -6  16   13.50    7.60 
   2  -6  16   19.60    5.40 
   3  -6  16    1.60    3.70 
  -9  -5  16   -1.30    7.20 
  -9  -5  16   -2.70    6.40 
  -8  -5  16    3.80    5.90 
  -7  -5  16   -3.50    4.90 
  -7  -5  16    7.30    5.30 
  -6  -5  16    1.50    4.40 
  -6  -5  16   -0.30    4.40 
  -5  -5  16   -0.70    4.10 
  -5  -5  16    1.90    3.80 
  -4  -5  16   -3.70    3.70 
  -4  -5  16    1.70    3.60 
  -3  -5  16    2.90    3.70 
  -3  -5  16    7.60    4.00 
  -2  -5  16    8.90    3.80 
  -2  -5  16    3.50    3.50 
  -1  -5  16    2.40    3.40 
  -1  -5  16    5.00    3.80 
   0  -5  16   25.40    6.70 
   1  -5  16   11.50    6.50 
   1  -5  16    1.90    3.50 
   2  -5  16    1.30    3.20 
   2  -5  16    1.90    5.20 
   4  -5  16   -2.00    4.10 
   7  -5  16   -8.30    7.40 
 -10  -4  16   -4.50    6.40 
 -10  -4  16    0.80    7.70 
  -9  -4  16   31.90    9.00 
  -9  -4  16   43.20   10.50 
  -8  -4  16   -4.50    5.50 
  -8  -4  16   -3.30    5.30 
  -7  -4  16   -4.40    4.70 
  -7  -4  16    4.50    5.40 
  -6  -4  16    1.30    4.30 
  -6  -4  16    0.20    4.40 
  -5  -4  16    4.30    3.90 
  -5  -4  16   -1.00    4.00 
  -4  -4  16   22.10    5.20 
  -4  -4  16   14.70    4.40 
  -3  -4  16    9.40    3.90 
  -3  -4  16   12.80    3.90 
  -2  -4  16    4.30    3.50 
  -2  -4  16    0.90    3.40 
  -1  -4  16   23.90    5.80 
   0  -4  16    9.90    4.70 
   0  -4  16    1.00    3.20 
   1  -4  16   38.20    6.90 
   1  -4  16   50.69    9.70 
   2  -4  16   -1.50    5.10 
   2  -4  16   -1.20    3.40 
   4  -4  16    3.60    5.10 
   6  -4  16   -8.40    6.40 
 -10  -3  16    1.10    6.20 
 -10  -3  16    2.90    6.70 
  -9  -3  16    2.90    5.80 
  -9  -3  16    3.30    6.90 
  -8  -3  16   -2.40    5.40 
  -8  -3  16    1.40    4.80 
  -7  -3  16   11.80    4.80 
  -7  -3  16    8.20    4.70 
  -6  -3  16   -0.10    4.20 
  -6  -3  16    2.00    5.00 
  -5  -3  16    3.00    4.30 
  -5  -3  16   26.80    6.20 
  -4  -3  16    9.90    3.90 
  -4  -3  16    4.30    4.70 
  -3  -3  16   30.10    7.10 
  -3  -3  16   34.50    5.80 
  -2  -3  16   10.50    4.00 
  -1  -3  16    7.40    4.60 
  -1  -3  16    4.90    3.40 
   0  -3  16    0.90    3.10 
   0  -3  16   -1.20    4.10 
   1  -3  16    7.30    3.70 
   1  -3  16   27.80    7.00 
   2  -3  16    0.20    7.00 
   2  -3  16   -3.70    3.50 
   4  -3  16   -5.30    5.10 
   6  -3  16   -1.90    6.10 
 -11  -2  16    2.40    6.70 
 -10  -2  16    8.90    6.70 
 -10  -2  16    2.20    5.80 
  -9  -2  16    6.40    5.80 
  -9  -2  16    1.00    5.60 
  -8  -2  16    5.10    5.00 
  -8  -2  16    0.40    7.30 
  -7  -2  16    2.00    6.20 
  -7  -2  16    1.90    4.40 
  -6  -2  16    9.00    4.00 
  -6  -2  16    5.40    5.80 
  -5  -2  16    0.30    5.20 
  -5  -2  16    7.80    3.80 
  -4  -2  16   14.50    6.30 
  -4  -2  16    7.20    3.80 
  -3  -2  16    2.90    5.70 
  -3  -2  16    9.30    4.00 
  -2  -2  16   24.30    5.90 
  -2  -2  16   11.70    4.50 
  -1  -2  16   61.39    9.50 
  -1  -2  16   77.19    8.90 
   0  -2  16   -1.60    3.20 
   0  -2  16    5.10    4.50 
   1  -2  16    3.20    4.00 
   1  -2  16    7.90    5.20 
   2  -2  16   10.40    7.20 
   2  -2  16   -1.20    4.20 
   3  -2  16   27.80   10.00 
   4  -2  16   -3.40    5.30 
   5  -2  16   -1.60    5.30 
   6  -2  16   -3.40    5.90 
 -11  -1  16   10.40    6.90 
 -10  -1  16    6.60    7.20 
  -9  -1  16   13.10    5.70 
  -9  -1  16    4.50    6.00 
  -8  -1  16    4.10    4.90 
  -8  -1  16    1.70    5.70 
  -7  -1  16    7.60    4.30 
  -7  -1  16    6.90    4.80 
  -6  -1  16    2.60    3.90 
  -6  -1  16    1.80    4.30 
  -5  -1  16    4.40    3.80 
  -5  -1  16   -2.10    3.80 
  -4  -1  16   -1.20    3.80 
  -4  -1  16   -1.10    4.10 
  -3  -1  16    4.20    4.90 
  -3  -1  16    4.50    4.20 
  -2  -1  16    1.20    3.80 
  -2  -1  16    1.60    5.50 
  -1  -1  16    8.40    4.20 
  -1  -1  16    0.50    3.80 
   0  -1  16   36.50    6.60 
   0  -1  16   32.10    7.10 
   1  -1  16    1.10    4.80 
   1  -1  16   16.90    4.90 
   2  -1  16   -2.20    4.50 
   2  -1  16   -5.50    4.50 
   3  -1  16   -4.20    5.30 
   3  -1  16   11.80    6.00 
   4  -1  16   -3.10    5.20 
   5  -1  16    0.10    5.20 
   6  -1  16   11.50    6.00 
 -11   0  16   16.70    6.40 
 -10   0  16   77.69   12.40 
  -9   0  16    9.10    4.90 
  -8   0  16    0.90    4.00 
  -8   0  16    9.30    4.60 
  -7   0  16    7.80    4.40 
  -7   0  16   13.70    4.30 
  -6   0  16    7.30    4.00 
  -6   0  16    0.90    3.90 
  -5   0  16    4.40    4.30 
  -5   0  16   -1.80    3.50 
  -4   0  16   23.70    5.00 
  -4   0  16   14.50    4.40 
  -3   0  16    6.60    4.30 
  -3   0  16    3.80    4.10 
  -2   0  16    3.10    6.00 
  -2   0  16    3.70    4.00 
  -1   0  16   15.60    5.50 
  -1   0  16   22.00    5.80 
   0   0  16   36.40    9.10 
   0   0  16   75.19    8.50 
   1   0  16   -1.90    4.70 
   1   0  16    0.70    5.10 
   2   0  16    6.10    5.00 
   2   0  16   -4.10    4.60 
   3   0  16   -3.40    4.90 
   3   0  16   -0.30    5.60 
   4   0  16    4.10    5.10 
   5   0  16    9.70    5.70 
 -11   1  16   35.30    9.00 
 -10   1  16    4.20    5.80 
  -9   1  16   11.50    4.90 
  -8   1  16    2.30    3.80 
  -8   1  16   10.30    4.30 
  -7   1  16    3.20    4.30 
  -7   1  16   -1.40    3.40 
  -6   1  16   -2.70    3.40 
  -6   1  16    9.70    4.40 
  -5   1  16    3.00    3.80 
  -5   1  16    8.90    4.70 
  -4   1  16    0.00    4.10 
  -3   1  16   -3.70    4.10 
  -3   1  16    7.70    4.10 
  -2   1  16    4.30    4.40 
  -1   1  16   -4.60    4.90 
  -1   1  16    7.00    4.50 
   0   1  16    4.30    5.20 
   0   1  16   12.20    4.80 
   1   1  16   -2.20    4.50 
   1   1  16    3.40    4.10 
   2   1  16    1.00    5.40 
   2   1  16    5.30    4.90 
   3   1  16    8.70    5.60 
   3   1  16    4.10    4.70 
   4   1  16    8.90    4.90 
   5   1  16   51.29   10.10 
 -12   2  16    8.90    6.30 
 -11   2  16   11.20    6.70 
 -10   2  16   15.70    6.40 
  -9   2  16   14.30    5.20 
  -8   2  16   11.90    5.10 
  -7   2  16   14.70    4.90 
  -7   2  16   -0.20    3.00 
  -6   2  16    6.30    4.50 
  -5   2  16    1.10    4.20 
  -4   2  16    2.90    4.30 
  -3   2  16    7.70    4.40 
  -2   2  16   -5.00    6.10 
  -2   2  16    4.00    4.40 
  -1   2  16    1.90    4.50 
  -1   2  16    1.10    5.20 
   0   2  16    2.60    5.10 
   0   2  16   -1.00    4.60 
   1   2  16   -1.90    4.30 
   1   2  16    6.50    5.10 
   2   2  16   12.40    6.00 
   2   2  16   11.20    5.20 
   3   2  16   41.20    8.50 
 -12   3  16   32.10    8.90 
 -11   3  16   46.50    9.70 
 -10   3  16   32.10    8.90 
  -9   3  16   36.60    8.20 
  -8   3  16    5.50    5.10 
  -7   3  16   11.00    5.10 
  -6   3  16    4.20    4.30 
  -5   3  16   11.80    4.90 
  -4   3  16    8.30    4.60 
  -3   3  16   -1.10    4.30 
  -3   3  16   -3.50    4.70 
  -2   3  16    0.10    4.90 
  -2   3  16   -1.50    6.40 
  -1   3  16    6.70    5.30 
  -1   3  16    1.20    5.10 
   0   3  16    2.30    4.50 
   0   3  16    1.40    4.70 
   2   3  16   17.80    6.20 
 -12   4  16   42.90   10.60 
 -11   4  16   11.90    6.90 
 -10   4  16    8.00    7.30 
  -9   4  16    5.50    5.50 
  -8   4  16    4.10    5.10 
  -7   4  16    8.30    4.80 
  -6   4  16   -0.90    4.80 
  -5   4  16   23.50    5.70 
  -5   4  16   24.60    6.80 
  -4   4  16   19.60    5.30 
  -3   4  16    0.50    5.10 
  -3   4  16    4.20    4.80 
  -2   4  16   10.90    7.20 
  -2   4  16    1.80    5.30 
  -1   4  16   49.80    9.70 
 -11   5  16   11.70    7.20 
 -10   5  16    9.50    7.20 
  -9   5  16   11.20    5.80 
  -8   5  16   -0.60    5.20 
  -7   5  16    5.30    5.10 
  -6   5  16    9.30    5.00 
  -2   5  16   64.99   13.30 
 -11   6  16    7.40    6.70 
 -10   6  16   10.80    7.20 
  -9   6  16    6.80    6.30 
  -8   6  16    6.30    6.00 
  -7   6  16    9.20    5.50 
  -6   6  16    5.80    5.30 
  -5   6  16    0.10    5.60 
   2   6  16    8.60    9.00 
 -11   7  16    7.30    7.30 
 -10   7  16    2.90    6.90 
  -9   7  16    3.90    7.30 
  -8   7  16    1.90    6.90 
  -7   7  16    0.90    5.60 
  -6   7  16    5.80    6.30 
  -5   7  16    2.70    5.90 
  -4   7  16    4.00    6.10 
   1   7  16    5.40    8.80 
 -10   8  16    1.40    6.60 
  -9   8  16    6.70    6.50 
  -8   8  16    7.30    7.90 
  -7   8  16    9.50    7.90 
  -6   8  16    0.80    6.80 
  -5   8  16    1.90    7.80 
  -4   8  16    2.90    6.60 
  -3   8  16   67.49   14.80 
  -9   9  16    4.40    7.70 
  -8   9  16    2.50    6.90 
  -7   9  16    2.90    7.40 
  -6   9  16    0.50    7.90 
  -5   9  16   -0.80    6.30 
  -4   9  16    6.20    7.30 
  -3   9  16    4.40    7.70 
  -2   9  16   -1.50    7.90 
  -8  10  16    5.40    8.00 
  -7  10  16    5.20    8.50 
  -6  10  16    4.70    6.40 
  -5  10  16   18.70    8.50 
  -2 -11  17    0.00    5.00 
  -1 -11  17    1.50    4.90 
   0 -11  17    4.80    4.80 
   1 -11  17    1.10    4.50 
   2 -11  17   -0.90    4.70 
   3 -11  17   -0.80    4.60 
  -3 -10  17    3.50    4.70 
  -2 -10  17    7.60    4.80 
  -1 -10  17   -3.10    4.20 
   0 -10  17   -1.70    4.30 
   1 -10  17   10.00    5.00 
   2 -10  17   -0.70    4.50 
   3 -10  17    1.90    4.80 
   4 -10  17   -1.40    4.70 
  -5  -9  17   -2.70    5.40 
  -4  -9  17   10.20    4.80 
  -3  -9  17    0.20    4.40 
  -2  -9  17    1.70    5.10 
  -2  -9  17   11.50    4.50 
  -1  -9  17   -3.90    4.20 
  -1  -9  17   -4.80    4.50 
   0  -9  17    4.60    4.40 
   0  -9  17   10.00    5.10 
   1  -9  17   -1.30    4.40 
   2  -9  17    2.30    4.00 
   3  -9  17   -1.70    4.40 
   4  -9  17   -0.70    4.40 
  -6  -8  17   -1.70    5.40 
  -5  -8  17    6.10    7.00 
  -5  -8  17   12.70    5.40 
  -4  -8  17    0.50    4.50 
  -3  -8  17   22.80    6.70 
  -3  -8  17   18.20    5.70 
  -2  -8  17    2.40    3.90 
  -2  -8  17    4.10    4.50 
  -1  -8  17    6.00    4.80 
  -1  -8  17   -2.90    3.90 
   0  -8  17   32.50    6.90 
   1  -8  17    2.30    4.10 
   2  -8  17    2.10    4.00 
   3  -8  17    5.80    4.10 
   4  -8  17   -4.40    4.30 
   5  -8  17   -5.10    5.10 
  -7  -7  17   -0.30    6.40 
  -7  -7  17   -5.60    6.60 
  -6  -7  17   -2.00    5.50 
  -5  -7  17   -5.10    5.50 
  -5  -7  17    5.20    4.50 
  -4  -7  17   -2.10    4.60 
  -4  -7  17   -1.30    4.20 
  -3  -7  17   -2.70    4.30 
  -3  -7  17   -1.00    3.90 
  -2  -7  17   -0.50    4.10 
  -2  -7  17    0.80    4.50 
  -1  -7  17   22.00    6.00 
   0  -7  17   -1.50    3.60 
   1  -7  17    1.70    3.80 
   2  -7  17   -1.50    3.80 
   3  -7  17   -0.50    3.90 
   5  -7  17   -3.40    5.30 
  -8  -6  17    5.30    7.10 
  -7  -6  17   -6.90    6.80 
  -7  -6  17   -3.20    6.10 
  -6  -6  17    5.30    5.10 
  -5  -6  17    4.30    4.30 
  -5  -6  17   -0.70    4.80 
  -4  -6  17    4.60    4.10 
  -4  -6  17    2.60    4.70 
  -3  -6  17   -1.00    3.80 
  -3  -6  17    3.40    4.30 
  -2  -6  17   13.90    4.50 
  -2  -6  17    0.50    3.90 
  -1  -6  17   -2.30    3.80 
  -1  -6  17   12.20    4.20 
   0  -6  17   36.70    7.40 
   1  -6  17   30.30    8.20 
   2  -6  17   -1.70    3.60 
   4  -6  17   -3.60    4.80 
  -8  -5  17   -0.80    7.00 
  -8  -5  17    4.20    6.90 
  -7  -5  17   -4.00    6.00 
  -7  -5  17   -0.80    5.50 
  -6  -5  17    1.40    4.70 
  -6  -5  17   -2.60    4.60 
  -5  -5  17    0.30    4.40 
  -5  -5  17    4.30    4.30 
  -4  -5  17    3.10    4.10 
  -4  -5  17    2.70    4.50 
  -3  -5  17    3.60    4.00 
  -3  -5  17   -0.10    3.80 
  -2  -5  17    7.20    4.00 
  -2  -5  17   -1.00    3.80 
  -1  -5  17   22.20    5.90 
   0  -5  17   24.50    6.60 
   1  -5  17   30.20    7.60 
   3  -5  17   -1.90    4.30 
   4  -5  17   -4.90    5.20 
  -9  -4  17   15.40    7.50 
  -9  -4  17    6.80    6.70 
  -8  -4  17    6.50    6.40 
  -8  -4  17    9.60    7.50 
  -7  -4  17    1.70    5.00 
  -7  -4  17    5.30    4.80 
  -6  -4  17    8.60    5.30 
  -6  -4  17    4.80    4.90 
  -5  -4  17    2.80    4.30 
  -5  -4  17   10.80    4.90 
  -4  -4  17    5.20    4.20 
  -4  -4  17   -2.60    4.00 
  -3  -4  17   49.00    6.80 
  -3  -4  17   34.90    7.60 
  -2  -4  17    7.70    4.10 
  -2  -4  17   -1.80    3.50 
  -1  -4  17   10.30    4.90 
  -1  -4  17    0.10    3.60 
   0  -4  17   20.50    5.50 
   0  -4  17    4.50    3.60 
   1  -4  17   17.80    5.90 
   2  -4  17   -3.00    4.20 
   3  -4  17   -5.40    4.80 
 -10  -3  17   -1.90    6.60 
  -9  -3  17    7.30    6.00 
  -9  -3  17    7.00    6.60 
  -8  -3  17    3.40    6.30 
  -8  -3  17    3.00    5.50 
  -7  -3  17   11.40    5.50 
  -7  -3  17    3.00    5.40 
  -6  -3  17    0.50    4.50 
  -6  -3  17    6.00    4.90 
  -5  -3  17    6.50    4.40 
  -5  -3  17    9.90    5.10 
  -4  -3  17   -1.30    4.00 
  -4  -3  17    9.40    4.00 
  -3  -3  17    4.60    3.70 
  -3  -3  17    5.60    4.20 
  -2  -3  17   22.70    5.90 
  -2  -3  17    4.40    4.00 
  -1  -3  17    9.10    4.60 
  -1  -3  17   -3.00    3.40 
   0  -3  17    7.80    4.70 
   0  -3  17    1.00    3.50 
   1  -3  17   -1.30    5.30 
   1  -3  17   -1.60    4.00 
   2  -3  17   -5.00    6.20 
   5  -3  17   -7.00    6.60 
 -10  -2  17   11.90    7.20 
  -9  -2  17    6.80    6.80 
  -9  -2  17    6.80    5.50 
  -8  -2  17    1.10    5.30 
  -8  -2  17    8.20    5.60 
  -7  -2  17    9.10    4.70 
  -7  -2  17    9.10    6.00 
  -6  -2  17   12.80    4.70 
  -6  -2  17    4.80    5.90 
  -5  -2  17    6.60    5.10 
  -5  -2  17    9.20    4.30 
  -4  -2  17    4.30    4.10 
  -4  -2  17    0.40    4.30 
  -3  -2  17    4.30    4.20 
  -3  -2  17   10.00    4.60 
  -2  -2  17    1.80    3.50 
  -2  -2  17    4.20    4.50 
  -1  -2  17    3.50    3.60 
  -1  -2  17   17.30    4.60 
   0  -2  17   -3.20    3.90 
   0  -2  17    3.30    4.80 
   1  -2  17   12.90    5.60 
   1  -2  17   -0.20    4.60 
   2  -2  17    7.50    6.20 
   2  -2  17   -5.90    5.30 
   3  -2  17   -3.20    5.80 
   4  -2  17   -0.70    6.60 
   5  -2  17   -5.50    6.20 
 -10  -1  17    6.60    6.70 
  -9  -1  17    4.60    6.70 
  -8  -1  17    3.80    4.90 
  -8  -1  17   -4.60    6.60 
  -7  -1  17    9.10    4.70 
  -7  -1  17   -1.10    6.60 
  -6  -1  17    4.70    4.20 
  -6  -1  17   -3.00    6.10 
  -5  -1  17   -4.70    5.60 
  -5  -1  17    7.20    4.30 
  -4  -1  17   -1.00    4.60 
  -4  -1  17   -2.30    6.50 
  -3  -1  17   11.80    4.90 
  -3  -1  17   11.20    4.90 
  -2  -1  17    7.50    4.40 
  -1  -1  17   -0.60    4.70 
   0  -1  17    4.70    4.90 
   0  -1  17   -2.80    4.50 
   1  -1  17   11.10    5.40 
   2  -1  17   -4.90    5.70 
   2  -1  17    4.70    5.30 
   4  -1  17    3.90    6.10 
   5  -1  17    4.00    6.10 
 -11   0  17    5.10    6.40 
 -10   0  17   51.99   10.30 
  -9   0  17   12.30    5.90 
  -8   0  17   -0.30    4.70 
  -8   0  17   12.60    4.80 
  -7   0  17   11.80    4.50 
  -7   0  17   -2.90    4.10 
  -6   0  17   -2.50    4.40 
  -6   0  17    0.60    4.60 
  -5   0  17   11.00    5.00 
  -5   0  17   15.10    5.30 
  -4   0  17   14.00    4.80 
  -4   0  17    6.50    5.10 
  -3   0  17   -2.70    6.50 
  -3   0  17    6.40    4.30 
  -2   0  17   -3.30    4.50 
  -2   0  17    0.80    4.60 
  -1   0  17   -4.90    5.00 
  -1   0  17    6.60    4.60 
   0   0  17   11.00    5.00 
   1   0  17    5.10    5.70 
   1   0  17   23.50    6.00 
   2   0  17   19.60    5.90 
   2   0  17    4.30    5.90 
   3   0  17    1.80    5.80 
   4   0  17   11.70    6.00 
 -11   1  17   10.60    6.30 
 -10   1  17    5.70    6.20 
  -9   1  17    4.70    5.60 
  -8   1  17   23.50    6.70 
  -7   1  17   -0.90    3.60 
  -7   1  17   14.90    5.40 
  -6   1  17    0.30    3.90 
  -6   1  17    9.80    5.10 
  -5   1  17    4.20    5.20 
  -4   1  17    2.90    4.40 
  -4   1  17   -2.80    4.80 
  -3   1  17    3.00    4.70 
  -3   1  17   -6.50    6.80 
  -2   1  17   -4.50    4.90 
  -1   1  17   -6.20    4.90 
  -1   1  17    2.50    5.20 
   0   1  17    5.90    5.50 
   1   1  17    4.80    5.10 
   1   1  17    3.80    5.40 
   2   1  17    2.30    5.30 
   2   1  17    0.10    6.30 
   3   1  17    4.50    5.40 
   3   1  17   -1.90    6.60 
   4   1  17   41.30    9.40 
 -11   2  17   30.60    8.80 
 -10   2  17    8.90    6.60 
  -9   2  17   20.60    7.40 
  -8   2  17    9.20    5.60 
  -7   2  17    7.40    5.60 
  -6   2  17    6.90    4.90 
  -5   2  17    1.30    4.60 
  -4   2  17    9.00    5.10 
  -3   2  17    1.60    5.10 
  -2   2  17   12.40    5.20 
  -1   2  17   16.30    5.50 
  -1   2  17    6.00    5.70 
   0   2  17    4.80    5.90 
   0   2  17    5.30    5.30 
   1   2  17    2.90    4.90 
   1   2  17    1.80    5.80 
   2   2  17   59.29    8.90 
   2   2  17   38.30    9.70 
   3   2  17   69.09   10.50 
   3   2  17   19.20    8.70 
 -11   3  17   57.89   11.30 
 -10   3  17   10.60    7.20 
  -9   3  17   17.90    7.70 
  -8   3  17   15.80    6.30 
  -7   3  17    6.80    5.30 
  -6   3  17    4.30    4.80 
  -5   3  17    5.70    5.10 
  -4   3  17   -6.50    5.10 
  -4   3  17    6.70    5.10 
  -3   3  17   -2.00    6.70 
  -3   3  17    1.50    5.20 
  -2   3  17    2.80    4.90 
  -2   3  17    2.40    5.30 
  -1   3  17    6.90    5.50 
  -1   3  17    4.90    5.90 
   0   3  17    3.50    5.60 
   0   3  17    7.60    5.00 
 -11   4  17   47.20   11.10 
 -10   4  17    2.60    7.60 
  -9   4  17    4.40    7.20 
  -8   4  17    9.00    5.70 
  -7   4  17    5.50    5.30 
  -6   4  17    4.30    5.50 
  -5   4  17    6.90    4.10 
  -5   4  17   -1.00    5.50 
  -4   4  17   38.10    7.90 
  -4   4  17   19.40    6.10 
  -3   4  17   14.20    6.80 
  -3   4  17   -1.40    5.80 
  -1   4  17   62.99   10.90 
 -11   5  17   17.00    7.50 
 -10   5  17    9.90    6.60 
  -9   5  17    3.40    7.40 
  -8   5  17    2.60    6.40 
  -7   5  17   -2.80    5.80 
  -6   5  17   -1.50    5.70 
  -5   5  17    7.60    5.50 
 -10   6  17    6.90    7.10 
  -9   6  17    7.60    7.60 
  -8   6  17   13.10    8.50 
  -7   6  17   -2.90    6.50 
  -6   6  17   -0.50    6.00 
  -5   6  17    2.80    6.70 
  -4   6  17    6.90    6.40 
 -10   7  17   14.40    7.60 
  -9   7  17    1.00    6.90 
  -8   7  17    4.90    7.20 
  -7   7  17    9.80    7.80 
  -6   7  17    0.10    8.00 
  -5   7  17    3.20    7.90 
  -4   7  17    4.80    7.80 
  -9   8  17   -3.90    6.90 
  -8   8  17    5.20    7.70 
  -7   8  17    4.30    7.20 
  -6   8  17    2.20    7.80 
  -5   8  17   14.30    8.30 
  -4   8  17    5.10    7.40 
  -3   8  17    0.80    7.40 
  -2   8  17    7.80    8.20 
  -7   9  17    5.50    7.90 
  -6   9  17   10.50    8.50 
  -5   9  17   -0.40    7.30 
  -2 -10  18   -5.20    6.00 
  -2 -10  18   -0.90    4.70 
  -1 -10  18   -0.70    4.80 
  -1 -10  18   -0.30    6.50 
   0 -10  18    3.30    4.80 
   1 -10  18   -0.90    4.90 
   2 -10  18    2.10    4.60 
  -4  -9  18    2.50    5.30 
  -3  -9  18   -0.80    5.10 
  -3  -9  18    0.00    5.90 
  -2  -9  18    8.10    4.80 
  -2  -9  18   13.80    6.00 
  -1  -9  18    7.10    4.80 
  -1  -9  18    7.00    5.80 
   0  -9  18   -2.70    4.70 
   1  -9  18    1.30    4.70 
   2  -9  18    2.30    4.90 
   3  -9  18   -1.00    4.70 
  -5  -8  18   -2.10    5.30 
  -5  -8  18   -2.00    6.70 
  -4  -8  18   -5.30    5.70 
  -4  -8  18    8.20    5.00 
  -3  -8  18   -3.50    5.20 
  -3  -8  18    4.50    4.60 
  -2  -8  18   16.30    5.80 
  -2  -8  18    4.50    4.90 
  -1  -8  18   30.60    7.30 
   0  -8  18   -2.20    4.30 
   1  -8  18   -1.70    4.20 
   2  -8  18   -1.70    4.00 
   4  -8  18   -1.20    5.10 
  -6  -7  18   -6.10    6.80 
  -6  -7  18   -1.80    6.20 
  -5  -7  18    6.00    5.30 
  -5  -7  18   -3.80    6.40 
  -4  -7  18   -3.80    5.00 
  -4  -7  18    7.10    4.90 
  -3  -7  18    0.90    5.10 
  -3  -7  18   -0.40    4.30 
  -2  -7  18    4.10    4.60 
  -2  -7  18    9.60    4.90 
  -1  -7  18    9.50    4.80 
  -1  -7  18   -1.90    4.40 
   0  -7  18   -0.60    4.00 
   1  -7  18   -2.20    4.50 
   2  -7  18    0.50    4.20 
   3  -7  18    1.00    4.40 
   4  -7  18    0.70    5.60 
  -7  -6  18   -1.40    6.30 
  -7  -6  18   -0.20    6.40 
  -6  -6  18    2.10    6.30 
  -6  -6  18    3.40    5.80 
  -5  -6  18   12.70    5.80 
  -5  -6  18    9.10    6.10 
  -4  -6  18   -2.60    4.70 
  -4  -6  18    1.50    5.30 
  -3  -6  18    8.10    4.80 
  -3  -6  18    2.10    4.40 
  -2  -6  18    4.30    4.50 
  -2  -6  18    1.50    4.40 
  -1  -6  18   29.60    6.80 
   0  -6  18   16.50    4.80 
   1  -6  18   -3.10    4.00 
   2  -6  18   -2.50    4.40 
   4  -6  18    5.90    5.80 
  -8  -5  18    9.30    6.90 
  -8  -5  18    4.30    6.90 
  -7  -5  18   12.80    6.30 
  -7  -5  18   10.10    7.00 
  -6  -5  18    1.70    5.40 
  -6  -5  18   -1.20    5.20 
  -5  -5  18   -1.30    4.80 
  -5  -5  18    1.70    5.40 
  -4  -5  18    1.50    4.50 
  -4  -5  18    3.60    4.70 
  -3  -5  18   12.70    4.80 
  -3  -5  18    1.80    4.40 
  -1  -5  18   -2.10    4.00 
   0  -5  18   32.00    7.10 
  -8  -4  18   14.90    6.80 
  -8  -4  18    6.30    6.80 
  -7  -4  18    4.30    6.10 
  -7  -4  18    7.70    6.60 
  -6  -4  18   -1.30    5.40 
  -6  -4  18    3.50    5.30 
  -5  -4  18   10.90    4.90 
  -5  -4  18    5.80    5.70 
  -4  -4  18   10.60    5.00 
  -4  -4  18   -0.10    4.60 
  -3  -4  18   -0.20    4.20 
  -3  -4  18    8.90    4.50 
  -2  -4  18   29.70    7.50 
  -1  -4  18   -2.80    3.80 
  -1  -4  18    7.60    5.10 
   0  -4  18    3.30    5.10 
   1  -4  18    5.70    4.40 
   1  -4  18   12.70    5.60 
  -9  -3  18   11.60    6.20 
  -9  -3  18    6.30    7.50 
  -8  -3  18   11.40    7.20 
  -8  -3  18   -0.70    5.90 
  -7  -3  18    6.60    5.50 
  -7  -3  18    5.20    5.70 
  -6  -3  18    2.10    5.50 
  -6  -3  18    8.50    4.90 
  -5  -3  18    1.60    5.40 
  -5  -3  18   14.70    4.70 
  -4  -3  18    1.20    4.60 
  -4  -3  18    5.40    4.60 
  -3  -3  18   -1.70    4.30 
  -3  -3  18    9.90    5.20 
  -2  -3  18   10.20    5.20 
  -1  -3  18   -2.40    4.70 
  -1  -3  18    0.30    3.80 
   0  -3  18   -2.60    4.10 
   0  -3  18   11.50    5.40 
   1  -3  18   -5.60    4.60 
   1  -3  18   10.00    6.00 
   2  -3  18   -2.90    5.40 
  -9  -2  18    7.20    6.30 
  -8  -2  18   10.70    6.90 
  -8  -2  18    0.90    5.30 
  -7  -2  18   -5.10    5.40 
  -7  -2  18    8.60    5.20 
  -6  -2  18   -0.30    5.10 
  -6  -2  18    8.70    4.60 
  -5  -2  18    5.50    4.60 
  -5  -2  18   -3.30    4.30 
  -4  -2  18   32.90    7.30 
  -4  -2  18    9.90    5.50 
  -3  -2  18   -0.10    4.20 
  -3  -2  18   14.60    5.70 
  -2  -2  18   14.40    4.90 
  -1  -2  18    8.00    5.30 
  -1  -2  18    2.90    4.10 
   0  -2  18    5.80    5.20 
   1  -2  18   12.10    5.80 
 -10  -1  18   17.30    7.20 
  -9  -1  18   10.10    6.60 
  -8  -1  18   12.40    6.80 
  -8  -1  18    0.10    6.70 
  -7  -1  18    1.20    4.70 
  -7  -1  18   -4.00    7.00 
  -6  -1  18    9.70    4.90 
  -6  -1  18    0.60    6.20 
  -5  -1  18   12.30    5.50 
  -5  -1  18   -3.30    4.70 
  -4  -1  18   22.80    5.80 
  -4  -1  18    4.30    4.40 
  -3  -1  18   -3.70    4.40 
  -3  -1  18    5.30    4.90 
  -2  -1  18    1.50    4.90 
  -2  -1  18   15.60    5.10 
  -1  -1  18   12.50    5.40 
  -1  -1  18   -0.80    4.90 
   0  -1  18   -2.50    5.40 
   0  -1  18   15.00    5.90 
   1  -1  18   -1.70    6.20 
   2  -1  18   -6.50    6.10 
   2  -1  18    8.60    8.40 
   3  -1  18   23.00    8.00 
 -10   0  18   11.40    6.10 
  -9   0  18    9.00    6.90 
  -8   0  18    8.50    6.20 
  -7   0  18   11.40    5.30 
  -7   0  18    3.80    5.60 
  -6   0  18   -1.50    5.90 
  -6   0  18    6.90    5.50 
  -5   0  18    6.90    5.60 
  -5   0  18    0.60    6.30 
  -4   0  18   -2.50    5.00 
  -4   0  18    9.80    5.10 
  -3   0  18    6.90    5.00 
  -2   0  18    1.00    5.20 
  -1   0  18   18.80    5.70 
  -1   0  18   -3.40    5.90 
   0   0  18   25.50    7.50 
   1   0  18   -0.40    5.00 
   2   0  18    0.60    6.60 
   3   0  18    2.90    6.10 
 -10   1  18   33.20    8.90 
  -9   1  18    7.20    6.80 
  -8   1  18   14.80    7.10 
  -7   1  18    7.60    5.90 
  -6   1  18    4.90    5.40 
  -5   1  18    6.70    5.20 
  -4   1  18    7.50    5.20 
  -3   1  18    6.80    5.40 
  -2   1  18    4.50    5.30 
  -1   1  18   -2.10    6.00 
   0   1  18    2.40    6.30 
   1   1  18   -0.30    5.90 
   1   1  18    3.30    6.10 
   2   1  18    8.30    7.10 
   2   1  18   -0.40    5.60 
   3   1  18    8.30    6.60 
 -10   2  18   14.80    7.70 
  -9   2  18   38.00   10.30 
  -8   2  18    9.00    7.40 
  -7   2  18    1.40    6.00 
  -6   2  18    6.80    5.20 
  -5   2  18    6.30    5.30 
  -4   2  18    7.20    5.50 
  -3   2  18   15.00    5.40 
  -3   2  18   -1.30    5.80 
  -2   2  18    2.60    6.10 
  -1   2  18    1.10    6.20 
  -1   2  18    7.00    6.10 
   0   2  18    4.20    5.70 
   0   2  18    5.20    5.20 
   1   2  18    4.90    6.80 
   1   2  18    7.90    6.20 
   2   2  18   43.50    8.90 
   2   2  18    8.30    8.10 
 -10   3  18   13.40    8.20 
  -9   3  18   12.60    7.40 
  -8   3  18    8.60    7.60 
  -7   3  18    9.20    5.90 
  -6   3  18    2.40    5.80 
  -5   3  18    7.70    5.90 
  -4   3  18   -9.30    7.10 
  -4   3  18    1.80    6.10 
  -3   3  18   17.80    6.40 
  -3   3  18   11.10    6.40 
  -2   3  18    4.20    6.30 
  -2   3  18   15.50    6.50 
  -1   3  18   10.50    5.90 
  -1   3  18    3.80    6.60 
   0   3  18   48.50   10.50 
 -10   4  18    6.20    7.60 
  -9   4  18   16.30    7.00 
  -8   4  18    0.50    7.70 
  -7   4  18   11.70    7.00 
  -6   4  18   13.70    6.40 
  -5   4  18   11.90    6.40 
  -4   4  18    8.50    6.60 
  -4   4  18   46.10   10.50 
 -10   5  18    5.00    6.90 
  -9   5  18   11.50    7.10 
  -8   5  18   14.80    7.90 
  -7   5  18    6.10    7.80 
  -6   5  18   11.90    6.80 
  -5   5  18   15.20    6.80 
  -9   6  18   10.20    7.90 
  -8   6  18    5.90    7.30 
  -7   6  18    3.00    6.90 
  -6   6  18    2.90    8.30 
  -5   6  18   -7.90    7.50 
  -4   6  18   -2.20    8.00 
  -8   7  18   -1.50    6.90 
  -7   7  18    3.60    8.10 
  -6   7  18   -0.10    7.40 
  -5   7  18    3.80    8.10 
  -4   7  18    7.90    8.80 
  -3   7  18    8.90    7.90 
  -6   8  18   -7.00    8.10 
  -1  -9  19    1.90    5.20 
   0  -9  19   -2.70    4.90 
  -4  -8  19   12.80    7.20 
  -3  -8  19    3.00    5.60 
  -3  -8  19    6.60    6.90 
  -2  -8  19    7.40    5.60 
  -2  -8  19   28.90    7.70 
   0  -8  19   -2.10    4.40 
   2  -8  19   -3.20    4.90 
  -5  -7  19    2.10    6.20 
  -5  -7  19   17.10    7.40 
  -4  -7  19    4.40    5.50 
  -4  -7  19   10.30    6.70 
  -3  -7  19   27.20    7.30 
  -3  -7  19    3.80    5.50 
  -2  -7  19   10.60    5.40 
  -1  -7  19    1.90    4.90 
   0  -7  19   -2.40    4.60 
   1  -7  19    0.20    4.60 
   2  -7  19   -5.50    4.80 
  -6  -6  19   -4.20    6.40 
  -6  -6  19    1.70    7.00 
  -5  -6  19   -2.50    5.70 
  -5  -6  19   11.20    6.60 
  -4  -6  19   12.20    5.70 
  -4  -6  19    2.50    5.50 
  -3  -6  19    0.90    5.00 
  -3  -6  19    4.70    5.30 
  -2  -6  19   29.30    7.30 
  -1  -6  19   -0.30    4.80 
   0  -6  19   -0.30    4.60 
   1  -6  19   -1.80    4.50 
  -7  -5  19    6.40    6.80 
  -7  -5  19    8.00    7.60 
  -6  -5  19    8.20    7.30 
  -6  -5  19    5.60    6.20 
  -5  -5  19    8.40    6.40 
  -5  -5  19    3.20    6.30 
  -4  -5  19   11.50    5.30 
  -4  -5  19    2.40    5.80 
  -3  -5  19    4.20    5.40 
  -3  -5  19   29.20    6.70 
   0  -5  19    2.60    4.50 
   0  -5  19   10.30    5.80 
   1  -5  19   -5.00    4.50 
   2  -5  19   -4.80    5.20 
  -7  -4  19   13.10    7.40 
  -7  -4  19    2.90    6.60 
  -6  -4  19    6.90    6.70 
  -6  -4  19   39.10    8.20 
  -5  -4  19    9.50    5.60 
  -5  -4  19    0.50    5.70 
  -4  -4  19   -5.20    5.20 
  -4  -4  19   10.70    5.20 
  -3  -4  19    1.00    4.80 
  -2  -4  19   13.70    6.60 
  -1  -4  19    6.10    4.60 
  -1  -4  19   13.20    5.50 
   0  -4  19   11.40    5.90 
   0  -4  19   -3.00    4.40 
   1  -4  19   12.20    5.90 
   2  -4  19   -6.60    5.50 
  -8  -3  19   -3.40    6.20 
  -8  -3  19   11.20    6.40 
  -7  -3  19   10.10    6.70 
  -7  -3  19   -5.40    6.40 
  -6  -3  19   -0.90    6.20 
  -6  -3  19   12.90    5.50 
  -5  -3  19   13.80    5.60 
  -5  -3  19   -1.80    5.40 
  -3  -3  19   15.60    6.20 
  -3  -3  19   -3.60    4.60 
  -2  -3  19   29.20    7.70 
  -2  -3  19    7.50    5.00 
  -1  -3  19    1.60    4.70 
  -1  -3  19   10.10    5.70 
   0  -3  19   14.70    6.60 
  -8  -2  19   -4.20    5.60 
  -8  -2  19    9.30    6.10 
  -7  -2  19    4.40    6.00 
  -7  -2  19   13.20    7.00 
  -6  -2  19   10.30    5.60 
  -6  -2  19    0.00    5.20 
  -5  -2  19   11.10    6.00 
  -5  -2  19   -3.70    5.60 
  -4  -2  19    7.40    6.20 
  -3  -2  19    6.80    5.50 
  -3  -2  19    1.60    5.20 
  -2  -2  19    3.00    5.10 
  -2  -2  19    6.60    5.60 
  -1  -2  19   15.30    6.20 
   0  -2  19   10.90    6.30 
   0  -2  19   -6.40    5.30 
   1  -2  19    6.40    7.60 
   3  -2  19   -0.90    8.10 
  -9  -1  19    5.60    6.10 
  -8  -1  19   10.50    6.80 
  -7  -1  19    3.40    5.10 
  -7  -1  19   15.90    7.20 
  -6  -1  19   14.10    6.10 
  -6  -1  19    0.10    4.90 
  -5  -1  19   13.30    6.20 
  -5  -1  19    0.00    4.80 
  -4  -1  19    9.30    5.70 
  -4  -1  19   -2.40    5.20 
  -3  -1  19    1.40    5.40 
  -3  -1  19   -2.50    5.40 
  -2  -1  19   -6.40    5.30 
  -2  -1  19   10.10    6.10 
  -1  -1  19   -8.00    6.30 
  -1  -1  19   11.90    5.90 
   0  -1  19    4.40    6.20 
   1  -1  19   11.40    7.10 
   1  -1  19   -7.70    6.50 
  -9   0  19   11.20    6.30 
  -8   0  19   39.20   10.10 
  -7   0  19   13.40    8.00 
  -6   0  19   -1.10    5.50 
  -6   0  19    3.50    6.50 
  -5   0  19   -2.40    4.80 
  -5   0  19    8.80    5.70 
  -4   0  19    5.90    5.60 
  -3   0  19   14.50    6.20 
  -2   0  19   41.90    9.00 
  -1   0  19    8.60    6.60 
   0   0  19   21.90    8.60 
   1   0  19    6.00    6.60 
   2   0  19    2.00    6.80 
  -9   1  19   14.20    7.60 
  -8   1  19   16.20    8.00 
  -7   1  19    5.70    7.70 
  -6   1  19    3.20    6.20 
  -5   1  19    9.40    5.70 
  -4   1  19   14.40    6.40 
  -3   1  19   10.60    6.30 
  -2   1  19    5.20    6.40 
  -1   1  19    8.60    6.50 
   0   1  19    8.10    7.40 
   0   1  19   -5.20    6.90 
   1   1  19   10.50    7.40 
   1   1  19   10.40    7.50 
  -9   2  19   13.70    8.00 
  -8   2  19   47.60   11.00 
  -7   2  19    2.40    7.70 
  -6   2  19   16.50    6.50 
  -5   2  19    6.50    6.20 
  -4   2  19    9.20    6.50 
  -3   2  19    8.60    7.50 
  -3   2  19   37.80    8.80 
  -2   2  19   -6.50    6.30 
  -2   2  19    2.70    6.20 
  -1   2  19    5.50    6.70 
  -1   2  19   17.60    7.40 
   0   2  19    4.80    7.20 
   0   2  19    8.70    6.90 
   1   2  19   13.10    7.80 
   1   2  19   -3.00    8.00 
  -9   3  19   17.90    7.90 
  -8   3  19   16.90    7.10 
  -7   3  19    8.80    7.60 
  -6   3  19   16.20    8.70 
  -5   3  19    5.30    6.50 
  -4   3  19    5.50    6.40 
  -4   3  19   -6.10    5.70 
  -3   3  19    1.50    5.60 
  -3   3  19    3.60    7.50 
  -2   3  19    5.80    6.70 
  -2   3  19    3.00    7.40 
  -1   3  19   38.80    9.80 
  -1   3  19   11.80    6.70 
  -9   4  19    7.40    6.90 
  -8   4  19   11.40    7.20 
  -7   4  19    7.50    7.80 
  -6   4  19   20.30    9.20 
  -5   4  19   -3.50    7.00 
  -4   4  19   81.09   16.10 
  -8   5  19    6.00    7.60 
  -7   5  19   -0.50    7.40 
  -6   5  19    6.30    7.30 
  -5   5  19    4.30    8.30 
  -4   5  19   10.50    9.00 
  -7   6  19    2.80    7.50 
  -6   6  19    6.10    8.40 
  -5   6  19   24.00    8.70 
  -4   6  19   20.30    9.10 
  -3  -7  20   37.00    9.40 
  -1  -7  20   -1.90    5.30 
   0  -7  20   -4.90    5.00 
  -4  -6  20   -1.20    6.50 
  -4  -6  20   10.40    6.40 
  -3  -6  20    1.20    6.30 
  -3  -6  20   10.40    6.20 
  -1  -6  20   41.00    8.40 
   0  -6  20    4.70    5.30 
   1  -6  20   -4.10    5.30 
  -5  -5  20    2.80    7.00 
  -5  -5  20   14.90    7.00 
  -4  -5  20   13.20    7.30 
  -3  -5  20   36.30    9.10 
  -2  -5  20   49.90   10.40 
  -1  -5  20   30.00    8.30 
   0  -5  20   -5.50    5.10 
   1  -5  20   -4.20    5.30 
  -6  -4  20   36.00    8.80 
  -6  -4  20    6.10    7.70 
  -5  -4  20    8.70    6.40 
  -4  -4  20   -5.50    5.80 
  -2  -4  20   34.50    9.20 
  -1  -4  20   32.30    8.80 
   1  -4  20   -4.00    6.20 
  -7  -3  20   17.00    6.90 
  -6  -3  20   36.90    9.70 
  -5  -3  20   33.50    9.60 
  -4  -3  20   52.39   10.30 
  -3  -3  20   40.50    9.60 
  -2  -3  20   10.30    6.30 
  -2  -3  20   21.70    6.50 
  -1  -3  20   -4.10    5.70 
  -1  -3  20   10.60    6.70 
   0  -3  20    6.80    8.80 
  -7  -2  20   45.20    9.80 
  -6  -2  20   -2.30    5.90 
  -6  -2  20   19.10    7.80 
  -5  -2  20   38.80   10.80 
  -4  -2  20   -2.90    6.00 
  -4  -2  20    2.90    6.50 
  -3  -2  20   30.30    7.80 
  -3  -2  20    6.90    5.80 
  -2  -2  20   57.29    9.30 
  -2  -2  20   15.20    8.00 
  -1  -2  20   14.60    7.20 
  -1  -2  20   -5.30    6.50 
   0  -2  20   14.80    7.70 
  -7  -1  20   39.10   10.30 
  -6  -1  20   -3.00    5.00 
  -6  -1  20   12.60    7.90 
  -5  -1  20   20.10    7.20 
  -5  -1  20    1.50    5.70 
  -4  -1  20   13.20    6.20 
  -4  -1  20   -4.50    5.80 
  -3  -1  20   30.70    8.80 
  -2  -1  20   11.20    6.80 
  -1  -1  20    5.00    7.10 
   0  -1  20   -5.10    7.40 
   1  -1  20   -8.20    7.40 
  -8   0  20   40.10   11.00 
  -7   0  20   19.80    8.10 
  -6   0  20    9.30    8.30 
  -5   0  20    5.60    6.50 
  -3   0  20   10.80    7.00 
  -2   0  20   10.50    6.80 
  -1   0  20   11.90    7.00 
   0   0  20   15.90    8.40 
  -8   1  20    7.90    8.40 
  -7   1  20   12.50    7.30 
  -6   1  20   18.50    8.00 
  -5   1  20    2.50    6.80 
  -4   1  20    5.00    7.60 
  -3   1  20   53.69   10.10 
  -2   1  20    2.90    7.70 
  -1   1  20   -8.40    7.10 
  -1   1  20   11.70    8.00 
   0   1  20    2.10    8.50 
   0   1  20    2.30    6.60 
  -8   2  20   14.50    8.00 
  -7   2  20    8.30    7.30 
  -6   2  20   14.70    7.70 
  -5   2  20   10.60    8.10 
  -4   2  20   11.00    8.20 
  -3   2  20    1.60    7.50 
  -2   2  20   -5.30    6.80 
  -2   2  20   17.10    7.90 
  -1   2  20    4.40    7.70 
  -1   2  20    7.90    8.50 
  -7   3  20   11.50    8.00 
  -6   3  20   10.20    8.20 
  -5   3  20    8.70    8.30 
  -4   3  20   -9.80    8.10 
  -4   3  20   14.00    8.50 
  -3   3  20    6.20    8.20 
  -3   3  20   33.70    9.40 
  -2   3  20   50.59   11.90 
  -7   4  20    1.90    8.10 
  -6   4  20    1.70    8.00 
  -5   4  20    5.50    8.20 
  -4   4  20   18.60    9.60 
  -3   4  20   17.40    9.80 
  -3  -4  21    6.30    7.20 
  -3  -4  21   39.00   10.10 
  -2  -4  21    3.90    6.80 
  -2  -4  21   40.10    9.20 
  -4  -3  21   -2.80    6.90 
  -4  -3  21   12.50    7.80 
  -3  -3  21   -4.40    6.50 
  -3  -3  21   12.20    7.20 
  -2  -3  21   29.60    9.00 
  -2  -3  21   49.60   10.60 
  -1  -3  21    8.50    8.40 
  -5  -2  21   43.50   12.40 
  -4  -2  21   11.70    7.50 
  -4  -2  21   -6.80    6.30 
  -3  -2  21    7.50    7.30 
  -2  -2  21   27.40    8.60 
  -1  -2  21   16.60    8.40 
  -5  -1  21    8.00    8.40 
  -5  -1  21   -5.10    6.30 
  -4  -1  21   10.60    7.50 
  -3  -1  21   11.60    7.90 
  -2  -1  21    8.20    7.30 
  -1  -1  21    8.40    8.80 
  -5   0  21   11.80    8.50 
  -4   0  21    6.00    8.30 
  -3   0  21   18.30    8.50 
  -2   0  21   14.50    8.60 
  -5   1  21   19.20    8.90 
  -4   1  21    9.30    8.40 
  -3   1  21    2.60    9.00 
   0   0   0    0.00    0.00 
  
_computing_structure_solution     'SHELXT 2014/5 (Sheldrick, 2014)' 
;
_shelx_hkl_checksum              49452
loop_
_space_group_symop_operation_xyz
'x, y, z'
'-x, -y, -z'
loop_
_atom_site_label
_atom_site_type_symbol
_atom_site_fract_x
_atom_site_fract_y
_atom_site_fract_z
_atom_site_U_iso_or_equiv
_atom_site_adp_type
_atom_site_occupancy
_atom_site_site_symmetry_order
_atom_site_calc_flag
_atom_site_refinement_flags_posn
_atom_site_refinement_flags_adp
N1 N 1.0511(3) 0.2867(3) 0.6719(2) 0.0302(8) Uani 1 1 d . U
C1 C 1.1820(4) 0.3320(3) 0.7213(3) 0.0283(10) Uani 1 1 d . U
N2 N 1.0730(3) 0.3316(3) 0.5416(2) 0.0350(9) Uani 1 1 d . U
C2 C 1.2941(4) 0.3620(3) 0.6954(3) 0.0380(11) Uani 1 1 d . U
H2 H 1.292516 0.356806 0.638273 0.046 Uiso 1 1 calc R U
N3 N 1.0368(3) 0.3116(3) 0.4560(2) 0.0343(9) Uani 1 1 d . U
C3 C 1.4094(4) 0.4005(4) 0.7594(3) 0.0417(12) Uani 1 1 d . U
H3 H 1.487184 0.421209 0.744303 0.050 Uiso 1 1 calc R U
C5 C 1.3022(4) 0.3800(3) 0.8692(3) 0.0361(11) Uani 1 1 d . U
H5 H 1.304684 0.386239 0.926418 0.043 Uiso 1 1 calc R U
N5 N 1.3220(4) 0.5827(4) 0.3289(3) 0.0599(12) Uani 1 1 d . U
N4 N 0.9080(3) 0.2053(3) 0.3258(2) 0.0300(8) Uani 1 1 d . U
C4 C 1.4143(4) 0.4094(4) 0.8445(3) 0.0421(12) Uani 1 1 d . U
H4 H 1.494102 0.435603 0.885203 0.051 Uiso 1 1 calc R U
C6 C 1.1845(4) 0.3405(3) 0.8068(3) 0.0285(9) Uani 1 1 d . U
N6 N 1.2093(4) 0.4975(4) 0.0601(3) 0.0645(13) Uani 1 1 d . U
C7 C 1.0522(4) 0.3007(3) 0.8114(3) 0.0287(10) Uani 1 1 d . U
N7 N 0.5322(4) 0.3359(4) 0.3260(3) 0.0597(12) Uani 1 1 d . U
N8 N 0.4225(4) 0.2916(4) 0.0575(3) 0.0637(13) Uani 1 1 d . U
C8 C 0.9960(4) 0.2915(3) 0.8788(3) 0.0374(11) Uani 1 1 d . U
H8 H 1.047860 0.312353 0.934598 0.045 Uiso 1 1 calc R U
C9 C 0.8636(4) 0.2514(4) 0.8621(3) 0.0424(12) Uani 1 1 d . U
H9 H 0.825110 0.244109 0.906737 0.051 Uiso 1 1 calc R U
N9 N 0.7849(4) 0.8535(3) 0.5025(3) 0.0592(12) Uani 1 1 d . U
N10 N 0.3808(4) 0.7966(4) 0.5019(3) 0.0609(13) Uani 1 1 d . U
C10 C 0.7863(4) 0.2216(4) 0.7788(3) 0.0435(12) Uani 1 1 d . U
H10 H 0.696457 0.194806 0.768909 0.052 Uiso 1 1 calc R U
C11 C 0.8379(4) 0.2304(3) 0.7108(3) 0.0357(11) Uani 1 1 d . U
H11 H 0.785122 0.211169 0.655310 0.043 Uiso 1 1 calc R U
N11 N 1.3196(4) 1.0686(4) 0.3400(3) 0.0680(14) Uani 1 1 d . U
C12 C 0.9728(4) 0.2694(3) 0.7283(3) 0.0302(10) Uani 1 1 d . U
N12 N 1.2069(4) 1.0103(4) 0.0652(3) 0.0642(13) Uani 1 1 d . U
C13 C 1.0066(4) 0.2603(3) 0.5828(3) 0.0274(9) Uani 1 1 d . U
N13 N 0.5515(4) 0.8591(4) 0.3454(3) 0.0691(14) Uani 1 1 d . U
C14 C 0.9034(4) 0.1626(3) 0.5415(3) 0.0326(10) Uani 1 1 d . U
H14 H 0.860328 0.112508 0.571716 0.039 Uiso 1 1 calc R U
N14 N 0.4242(4) 0.7853(4) 0.0729(3) 0.0637(13) Uani 1 1 d . U
C15 C 0.8679(4) 0.1429(3) 0.4561(3) 0.0313(10) Uani 1 1 d . U
H15 H 0.798175 0.079262 0.425458 0.038 Uiso 1 1 calc R U
C16 C 0.9378(4) 0.2200(3) 0.4148(3) 0.0284(9) Uani 1 1 d . U
C17 C 0.7822(4) 0.1599(3) 0.2689(3) 0.0289(10) Uani 1 1 d . U
C19 C 0.5547(4) 0.0895(4) 0.2175(3) 0.0437(12) Uani 1 1 d . U
H19 H 0.472957 0.066696 0.227200 0.052 Uiso 1 1 calc R U
C18 C 0.6624(4) 0.1310(3) 0.2862(3) 0.0346(11) Uani 1 1 d . U
H18 H 0.655482 0.139250 0.341554 0.041 Uiso 1 1 calc R U
C20 C 0.5626(4) 0.0802(4) 0.1345(3) 0.0433(12) Uani 1 1 d . U
H20 H 0.487282 0.053089 0.089636 0.052 Uiso 1 1 calc R U
C21 C 0.6821(4) 0.1112(3) 0.1185(3) 0.0366(11) Uani 1 1 d . U
H21 H 0.688347 0.104747 0.062912 0.044 Uiso 1 1 calc R U
C22 C 0.7927(4) 0.1521(3) 0.1857(3) 0.0281(9) Uani 1 1 d . U
C23 C 0.9971(4) 0.2264(3) 0.2769(3) 0.0286(10) Uani 1 1 d . U
C24 C 1.1315(4) 0.2685(3) 0.3017(3) 0.0377(11) Uani 1 1 d . U
H24 H 1.177550 0.289971 0.358784 0.045 Uiso 1 1 calc R U
C25 C 1.1944(4) 0.2776(4) 0.2388(3) 0.0440(12) Uani 1 1 d . U
H25 H 1.284796 0.305777 0.254305 0.053 Uiso 1 1 calc R U
C26 C 1.1283(4) 0.2462(3) 0.1534(3) 0.0415(12) Uani 1 1 d . U
H26 H 1.174325 0.254099 0.112666 0.050 Uiso 1 1 calc R U
C27 C 0.9951(4) 0.2035(3) 0.1288(3) 0.0344(10) Uani 1 1 d . U
H27 H 0.949912 0.181991 0.071485 0.041 Uiso 1 1 calc R U
C28 C 0.9291(4) 0.1930(3) 0.1908(3) 0.0285(9) Uani 1 1 d . U
C29 C 1.2364(4) 0.5455(4) 0.2705(3) 0.0379(11) Uani 1 1 d . U
C30 C 1.1734(4) 0.5004(4) 0.1189(3) 0.0395(11) Uani 1 1 d . U
C31 C 1.1320(4) 0.5015(3) 0.1948(3) 0.0335(10) Uani 1 1 d . U
C32 C 1.0035(4) 0.4637(3) 0.1946(3) 0.0306(10) Uani 1 1 d . U
C33 C 0.9668(4) 0.4625(3) 0.2720(3) 0.0335(10) Uani 1 1 d . U
H33 H 1.030615 0.486785 0.323587 0.040 Uiso 1 1 calc R U
C34 C 0.8412(4) 0.4269(3) 0.2713(3) 0.0325(10) Uani 1 1 d . U
H34 H 0.818953 0.426990 0.322466 0.039 Uiso 1 1 calc R U
C35 C 0.7406(4) 0.3884(3) 0.1924(3) 0.0302(10) Uani 1 1 d . U
C36 C 0.7782(4) 0.3909(3) 0.1158(3) 0.0332(10) Uani 1 1 d . U
H36 H 0.714570 0.367699 0.064086 0.040 Uiso 1 1 calc R U
C37 C 0.9026(4) 0.4257(3) 0.1163(3) 0.0334(10) Uani 1 1 d . U
H37 H 0.924485 0.425350 0.065067 0.040 Uiso 1 1 calc R U
C38 C 0.6122(4) 0.3517(3) 0.1924(3) 0.0334(10) Uani 1 1 d . U
C39 C 0.5709(4) 0.3448(4) 0.2675(3) 0.0376(11) Uani 1 1 d . U
C40 C 0.5090(4) 0.3184(4) 0.1160(3) 0.0417(12) Uani 1 1 d . U
C41 C 0.3741(4) 0.4308(3) 0.4996(3) 0.0329(10) Uani 1 1 d . U
H41 H 0.290606 0.384490 0.499056 0.039 Uiso 1 1 calc R U
C42 C 0.4016(4) 0.5377(4) 0.5005(3) 0.0332(10) Uani 1 1 d . U
H42 H 0.336794 0.563649 0.501161 0.040 Uiso 1 1 calc R U
C43 C 0.5296(4) 0.6139(3) 0.5006(2) 0.0313(10) Uani 1 1 d . U
C44 C 0.5567(4) 0.7222(3) 0.5022(3) 0.0327(10) Uani 1 1 d . U
C45 C 0.4598(4) 0.7653(4) 0.5022(3) 0.0412(12) Uani 1 1 d . U
C46 C 0.6831(4) 0.7967(4) 0.5014(3) 0.0368(11) Uani 1 1 d . U
C47 C 0.5818(4) 0.8567(4) 0.2840(3) 0.0418(11) Uani 1 1 d . U
C48 C 0.5116(4) 0.8152(4) 0.1311(3) 0.0428(12) Uani 1 1 d . U
C49 C 0.6171(4) 0.8540(3) 0.2057(3) 0.0359(10) Uani 1 1 d . U
C50 C 0.7454(4) 0.8898(3) 0.2051(3) 0.0325(10) Uani 1 1 d . U
C51 C 0.8467(4) 0.9282(3) 0.2827(3) 0.0314(10) Uani 1 1 d . U
H51 H 0.825996 0.926479 0.334389 0.038 Uiso 1 1 calc R U
C52 C 0.9715(4) 0.9667(3) 0.2814(3) 0.0314(10) Uani 1 1 d . U
H52 H 1.036474 0.992860 0.332529 0.038 Uiso 1 1 calc R U
C53 C 1.0068(4) 0.9684(3) 0.2034(3) 0.0320(10) Uani 1 1 d . U
C54 C 0.9043(4) 0.9293(3) 0.1259(3) 0.0350(10) Uani 1 1 d . U
H54 H 0.925052 0.930367 0.074224 0.042 Uiso 1 1 calc R U
C55 C 0.7793(4) 0.8912(3) 0.1262(3) 0.0368(11) Uani 1 1 d . U
H55 H 0.714305 0.865632 0.075109 0.044 Uiso 1 1 calc R U
C56 C 1.1351(4) 1.0048(3) 0.2027(3) 0.0354(10) Uani 1 1 d . U
C57 C 1.2385(4) 1.0415(4) 0.2799(3) 0.0405(11) Uani 1 1 d . U
C58 C 1.1741(4) 1.0076(4) 0.1255(3) 0.0430(12) Uani 1 1 d . U
loop_
_atom_site_aniso_label
_atom_site_aniso_U_11
_atom_site_aniso_U_22
_atom_site_aniso_U_33
_atom_site_aniso_U_23
_atom_site_aniso_U_13
_atom_site_aniso_U_12
N1 0.0298(18) 0.033(2) 0.025(2) 0.0003(16) 0.0045(16) 0.0117(16)
C1 0.024(2) 0.026(2) 0.027(2) -0.0015(19) 0.0008(18) 0.0068(18)
N2 0.036(2) 0.035(2) 0.029(2) 0.0047(17) 0.0055(17) 0.0106(17)
C2 0.038(2) 0.045(3) 0.037(3) 0.012(2) 0.016(2) 0.019(2)
N3 0.038(2) 0.033(2) 0.025(2) 0.0037(17) 0.0030(17) 0.0096(17)
C3 0.030(2) 0.041(3) 0.056(3) 0.010(2) 0.011(2) 0.016(2)
C5 0.039(2) 0.035(3) 0.030(3) 0.001(2) 0.000(2) 0.016(2)
N5 0.044(2) 0.070(3) 0.047(3) 0.004(2) -0.001(2) 0.011(2)
N4 0.0299(18) 0.036(2) 0.025(2) 0.0029(16) 0.0066(16) 0.0143(16)
C4 0.035(2) 0.040(3) 0.046(3) 0.004(2) 0.003(2) 0.014(2)
C6 0.029(2) 0.020(2) 0.031(3) -0.0004(18) 0.0011(18) 0.0082(17)
N6 0.067(3) 0.081(4) 0.050(3) 0.014(3) 0.025(3) 0.028(3)
C7 0.033(2) 0.027(2) 0.023(2) -0.0042(19) 0.0043(19) 0.0127(18)
N7 0.057(3) 0.071(3) 0.047(3) 0.004(2) 0.023(2) 0.017(2)
N8 0.043(2) 0.075(3) 0.054(3) -0.002(3) -0.002(2) 0.014(2)
C8 0.051(3) 0.033(3) 0.030(3) 0.004(2) 0.009(2) 0.019(2)
C9 0.047(3) 0.045(3) 0.045(3) 0.010(2) 0.025(2) 0.021(2)
N9 0.042(2) 0.051(3) 0.077(4) 0.011(2) 0.015(2) 0.012(2)
N10 0.056(3) 0.074(3) 0.063(3) 0.012(2) 0.018(2) 0.036(3)
C10 0.031(2) 0.047(3) 0.054(3) 0.008(2) 0.013(2) 0.017(2)
C11 0.031(2) 0.037(3) 0.036(3) 0.003(2) 0.006(2) 0.012(2)
N11 0.039(2) 0.083(4) 0.057(3) -0.017(3) -0.007(2) 0.016(2)
C12 0.032(2) 0.023(2) 0.035(3) -0.0002(19) 0.012(2) 0.0107(18)
N12 0.064(3) 0.082(4) 0.053(3) 0.020(3) 0.027(3) 0.027(3)
C13 0.031(2) 0.028(2) 0.024(2) 0.0040(18) 0.0041(18) 0.0152(18)
N13 0.061(3) 0.106(4) 0.053(3) 0.027(3) 0.029(3) 0.037(3)
C14 0.038(2) 0.028(2) 0.031(3) 0.009(2) 0.009(2) 0.0109(19)
N14 0.042(2) 0.079(3) 0.056(3) -0.002(3) -0.001(2) 0.020(2)
C15 0.038(2) 0.025(2) 0.026(2) 0.0015(19) 0.004(2) 0.0095(19)
C16 0.032(2) 0.025(2) 0.025(2) 0.0010(18) 0.0027(19) 0.0120(18)
C17 0.028(2) 0.026(2) 0.031(2) 0.0018(19) 0.0016(19) 0.0139(18)
C19 0.031(2) 0.042(3) 0.053(3) 0.004(2) 0.009(2) 0.013(2)
C18 0.032(2) 0.039(3) 0.033(3) 0.002(2) 0.009(2) 0.016(2)
C20 0.035(2) 0.043(3) 0.041(3) 0.001(2) -0.001(2) 0.011(2)
C21 0.041(2) 0.030(3) 0.030(3) -0.002(2) 0.000(2) 0.012(2)
C22 0.030(2) 0.026(2) 0.023(2) 0.0013(19) 0.0041(18) 0.0076(18)
C23 0.028(2) 0.029(2) 0.031(2) 0.0066(19) 0.0090(19) 0.0138(19)
C24 0.031(2) 0.037(3) 0.037(3) 0.000(2) 0.003(2) 0.010(2)
C25 0.034(2) 0.044(3) 0.055(3) 0.007(2) 0.015(2) 0.016(2)
C26 0.046(3) 0.038(3) 0.051(3) 0.011(2) 0.027(2) 0.020(2)
C27 0.045(3) 0.031(3) 0.026(3) 0.002(2) 0.010(2) 0.014(2)
C28 0.037(2) 0.024(2) 0.027(2) 0.0066(19) 0.0076(19) 0.0159(19)
C29 0.037(2) 0.037(3) 0.037(3) 0.005(2) 0.009(2) 0.014(2)
C30 0.033(2) 0.042(3) 0.037(3) 0.006(2) 0.004(2) 0.011(2)
C31 0.034(2) 0.035(3) 0.031(3) 0.005(2) 0.0055(19) 0.015(2)
C32 0.032(2) 0.025(2) 0.031(3) 0.0047(19) 0.0034(19) 0.0108(18)
C33 0.035(2) 0.035(3) 0.027(3) 0.003(2) 0.004(2) 0.013(2)
C34 0.040(2) 0.035(3) 0.022(2) 0.005(2) 0.0083(19) 0.015(2)
C35 0.034(2) 0.025(2) 0.030(3) 0.0020(19) 0.0054(19) 0.0126(19)
C36 0.035(2) 0.034(3) 0.022(2) 0.000(2) -0.0002(19) 0.010(2)
C37 0.038(2) 0.038(3) 0.022(2) 0.001(2) 0.0071(19) 0.015(2)
C38 0.035(2) 0.034(3) 0.029(3) 0.003(2) 0.0056(19) 0.012(2)
C39 0.029(2) 0.035(3) 0.041(3) 0.000(2) 0.004(2) 0.008(2)
C40 0.036(3) 0.039(3) 0.044(3) 0.001(2) 0.009(2) 0.011(2)
C41 0.018(2) 0.045(3) 0.026(3) -0.004(2) 0.0020(19) 0.0058(19)
C42 0.023(2) 0.045(3) 0.027(3) 0.001(2) 0.0030(19) 0.0124(19)
C43 0.025(2) 0.043(3) 0.018(2) -0.002(2) 0.0017(18) 0.0085(19)
C44 0.030(2) 0.037(3) 0.028(3) 0.003(2) 0.008(2) 0.0113(19)
C45 0.036(2) 0.048(3) 0.038(3) 0.008(2) 0.013(2) 0.014(2)
C46 0.037(2) 0.038(3) 0.033(3) 0.005(2) 0.009(2) 0.013(2)
C47 0.031(2) 0.045(3) 0.047(3) 0.010(3) 0.005(2) 0.015(2)
C48 0.034(3) 0.043(3) 0.049(3) 0.005(2) 0.012(2) 0.013(2)
C49 0.035(2) 0.031(3) 0.035(3) 0.001(2) 0.007(2) 0.009(2)
C50 0.036(2) 0.022(2) 0.035(3) -0.0003(19) 0.005(2) 0.0108(19)
C51 0.038(2) 0.029(2) 0.026(2) 0.0026(19) 0.010(2) 0.0138(19)
C52 0.029(2) 0.031(2) 0.028(3) -0.003(2) -0.0024(19) 0.0117(19)
C53 0.037(2) 0.026(2) 0.032(3) 0.002(2) 0.007(2) 0.0129(19)
C54 0.037(2) 0.038(3) 0.027(3) 0.002(2) 0.008(2) 0.013(2)
C55 0.039(2) 0.033(3) 0.031(3) -0.003(2) 0.003(2) 0.011(2)
C56 0.035(2) 0.033(3) 0.037(3) 0.004(2) 0.008(2) 0.014(2)
C57 0.033(2) 0.039(3) 0.046(3) -0.001(2) 0.011(2) 0.011(2)
C58 0.037(3) 0.044(3) 0.047(3) 0.011(2) 0.012(2) 0.014(2)
loop_
_atom_type_symbol
_atom_type_description
_atom_type_scat_dispersion_real
_atom_type_scat_dispersion_imag
_atom_type_scat_source
C C 0.0033 0.0016 'International Tables Vol C Tables 4.2.6.8 and 6.1.1.4'
H H 0.0000 0.0000 'International Tables Vol C Tables 4.2.6.8 and 6.1.1.4'
N N 0.0061 0.0033 'International Tables Vol C Tables 4.2.6.8 and 6.1.1.4'
O O 0.0106 0.0060 'International Tables Vol C Tables 4.2.6.8 and 6.1.1.4'
loop_
_geom_angle_atom_site_label_1
_geom_angle_atom_site_label_2
_geom_angle_atom_site_label_3
_geom_angle
_geom_angle_site_symmetry_1
_geom_angle_site_symmetry_3
C12 N1 C13 126.0(3) . .
C12 N1 C1 107.4(3) . .
C13 N1 C1 126.6(3) . .
C2 C1 C6 122.0(4) . .
C2 C1 N1 129.4(4) . .
C6 C1 N1 108.6(3) . .
C13 N2 N3 119.4(3) . .
C1 C2 C3 116.0(4) . .
C1 C2 H2 122.0 . .
C3 C2 H2 122.0 . .
C16 N3 N2 119.3(4) . .
C4 C3 C2 123.0(4) . .
C4 C3 H3 118.5 . .
C2 C3 H3 118.5 . .
C4 C5 C6 118.5(4) . .
C4 C5 H5 120.7 . .
C6 C5 H5 120.7 . .
C23 N4 C16 126.4(3) . .
C23 N4 C17 107.3(3) . .
C16 N4 C17 126.2(3) . .
C5 C4 C3 120.2(4) . .
C5 C4 H4 119.9 . .
C3 C4 H4 119.9 . .
C5 C6 C1 120.2(4) . .
C5 C6 C7 132.1(4) . .
C1 C6 C7 107.7(4) . .
C8 C7 C12 119.5(4) . .
C8 C7 C6 133.3(4) . .
C12 C7 C6 107.2(4) . .
C9 C8 C7 119.3(4) . .
C9 C8 H8 120.4 . .
C7 C8 H8 120.4 . .
C8 C9 C10 120.3(4) . .
C8 C9 H9 119.9 . .
C10 C9 H9 119.9 . .
C11 C10 C9 122.2(4) . .
C11 C10 H10 118.9 . .
C9 C10 H10 118.9 . .
C10 C11 C12 117.1(4) . .
C10 C11 H11 121.4 . .
C12 C11 H11 121.4 . .
C7 C12 C11 121.5(4) . .
C7 C12 N1 109.1(3) . .
C11 C12 N1 129.4(4) . .
N2 C13 C14 122.7(4) . .
N2 C13 N1 115.9(4) . .
C14 C13 N1 121.3(4) . .
C15 C14 C13 117.6(4) . .
C15 C14 H14 121.2 . .
C13 C14 H14 121.2 . .
C14 C15 C16 118.3(4) . .
C14 C15 H15 120.8 . .
C16 C15 H15 120.8 . .
N3 C16 C15 122.6(4) . .
N3 C16 N4 115.4(4) . .
C15 C16 N4 122.0(4) . .
C18 C17 C22 121.6(4) . .
C18 C17 N4 129.2(4) . .
C22 C17 N4 109.1(3) . .
C18 C19 C20 122.8(4) . .
C18 C19 H19 118.6 . .
C20 C19 H19 118.6 . .
C19 C18 C17 116.7(4) . .
C19 C18 H18 121.7 . .
C17 C18 H18 121.7 . .
C21 C20 C19 119.7(4) . .
C21 C20 H20 120.1 . .
C19 C20 H20 120.1 . .
C20 C21 C22 119.3(4) . .
C20 C21 H21 120.3 . .
C22 C21 H21 120.3 . .
C21 C22 C17 119.9(4) . .
C21 C22 C28 133.0(4) . .
C17 C22 C28 107.1(3) . .
C24 C23 C28 120.6(4) . .
C24 C23 N4 130.2(4) . .
C28 C23 N4 109.1(3) . .
C25 C24 C23 117.6(4) . .
C25 C24 H24 121.2 . .
C23 C24 H24 121.2 . .
C24 C25 C26 122.4(4) . .
C24 C25 H25 118.8 . .
C26 C25 H25 118.8 . .
C27 C26 C25 120.1(4) . .
C27 C26 H26 120.0 . .
C25 C26 H26 120.0 . .
C26 C27 C28 118.8(4) . .
C26 C27 H27 120.6 . .
C28 C27 H27 120.6 . .
C27 C28 C23 120.6(4) . .
C27 C28 C22 132.0(4) . .
C23 C28 C22 107.4(4) . .
N5 C29 C31 177.4(5) . .
N6 C30 C31 177.3(5) . .
C32 C31 C29 123.2(4) . .
C32 C31 C30 123.1(4) . .
C29 C31 C30 113.7(4) . .
C31 C32 C33 121.1(4) . .
C31 C32 C37 120.8(4) . .
C33 C32 C37 118.1(4) . .
C34 C33 C32 120.8(4) . .
C34 C33 H33 119.6 . .
C32 C33 H33 119.6 . .
C33 C34 C35 120.7(4) . .
C33 C34 H34 119.6 . .
C35 C34 H34 119.6 . .
C38 C35 C36 121.6(4) . .
C38 C35 C34 120.3(4) . .
C36 C35 C34 118.1(4) . .
C37 C36 C35 121.2(4) . .
C37 C36 H36 119.4 . .
C35 C36 H36 119.4 . .
C36 C37 C32 121.1(4) . .
C36 C37 H37 119.5 . .
C32 C37 H37 119.5 . .
C35 C38 C39 123.1(4) . .
C35 C38 C40 122.5(4) . .
C39 C38 C40 114.3(4) . .
N7 C39 C38 176.9(5) . .
N8 C40 C38 176.6(5) . .
C42 C41 C43 121.7(4) . 2_666
C42 C41 H41 119.1 . .
C43 C41 H41 119.1 2_666 .
C41 C42 C43 121.8(4) . .
C41 C42 H42 119.1 . .
C43 C42 H42 119.1 . .
C44 C43 C41 122.2(4) . 2_666
C44 C43 C42 121.3(4) . .
C41 C43 C42 116.5(4) 2_666 .
C43 C44 C45 121.5(4) . .
C43 C44 C46 120.9(4) . .
C45 C44 C46 117.6(4) . .
N10 C45 C44 178.1(5) . .
N9 C46 C44 177.5(5) . .
N13 C47 C49 178.5(5) . .
N14 C48 C49 177.4(5) . .
C50 C49 C48 123.7(4) . .
C50 C49 C47 121.0(4) . .
C48 C49 C47 115.2(4) . .
C49 C50 C51 120.7(4) . .
C49 C50 C55 120.3(4) . .
C51 C50 C55 119.0(4) . .
C52 C51 C50 120.2(4) . .
C52 C51 H51 119.9 . .
C50 C51 H51 119.9 . .
C51 C52 C53 121.4(4) . .
C51 C52 H52 119.3 . .
C53 C52 H52 119.3 . .
C56 C53 C52 121.0(4) . .
C56 C53 C54 121.2(4) . .
C52 C53 C54 117.8(4) . .
C55 C54 C53 121.4(4) . .
C55 C54 H54 119.3 . .
C53 C54 H54 119.3 . .
C54 C55 C50 120.1(4) . .
C54 C55 H55 119.9 . .
C50 C55 H55 119.9 . .
C53 C56 C58 122.5(4) . .
C53 C56 C57 121.7(4) . .
C58 C56 C57 115.8(4) . .
N11 C57 C56 178.9(5) . .
N12 C58 C56 178.9(5) . .
loop_
_geom_bond_atom_site_label_1
_geom_bond_atom_site_label_2
_geom_bond_distance
_geom_bond_site_symmetry_2
N1 C12 1.404(5) .
N1 C13 1.404(5) .
N1 C1 1.413(5) .
C1 C2 1.376(5) .
C1 C6 1.392(6) .
N2 C13 1.326(5) .
N2 N3 1.347(5) .
C2 C3 1.385(6) .
C2 H2 0.9300 .
N3 C16 1.321(5) .
C3 C4 1.379(6) .
C3 H3 0.9300 .
C5 C4 1.364(6) .
C5 C6 1.389(5) .
C5 H5 0.9300 .
N5 C29 1.130(5) .
N4 C23 1.402(5) .
N4 C16 1.404(5) .
N4 C17 1.412(5) .
C4 H4 0.9300 .
C6 C7 1.437(5) .
N6 C30 1.132(6) .
C7 C8 1.392(6) .
C7 C12 1.394(5) .
N7 C39 1.141(6) .
N8 C40 1.139(5) .
C8 C9 1.368(6) .
C8 H8 0.9300 .
C9 C10 1.389(6) .
C9 H9 0.9300 .
N9 C46 1.133(5) .
N10 C45 1.129(5) .
C10 C11 1.370(6) .
C10 H10 0.9300 .
C11 C12 1.395(5) .
C11 H11 0.9300 .
N11 C57 1.121(5) .
N12 C58 1.133(6) .
C13 C14 1.388(5) .
N13 C47 1.139(6) .
C14 C15 1.344(5) .
C14 H14 0.9300 .
N14 C48 1.140(5) .
C15 C16 1.388(5) .
C15 H15 0.9300 .
C17 C18 1.387(5) .
C17 C22 1.396(6) .
C19 C18 1.373(6) .
C19 C20 1.384(6) .
C19 H19 0.9300 .
C18 H18 0.9300 .
C20 C21 1.374(6) .
C20 H20 0.9300 .
C21 C22 1.379(5) .
C21 H21 0.9300 .
C22 C28 1.438(5) .
C23 C24 1.384(5) .
C23 C28 1.398(5) .
C24 C25 1.374(6) .
C24 H24 0.9300 .
C25 C26 1.384(6) .
C25 H25 0.9300 .
C26 C27 1.371(6) .
C26 H26 0.9300 .
C27 C28 1.386(5) .
C27 H27 0.9300 .
C29 C31 1.425(6) .
C30 C31 1.429(6) .
C31 C32 1.374(5) .
C32 C33 1.424(6) .
C32 C37 1.433(5) .
C33 C34 1.340(5) .
C33 H33 0.9300 .
C34 C35 1.438(5) .
C34 H34 0.9300 .
C35 C38 1.374(6) .
C35 C36 1.417(6) .
C36 C37 1.329(5) .
C36 H36 0.9300 .
C37 H37 0.9300 .
C38 C39 1.415(6) .
C38 C40 1.428(6) .
C41 C42 1.343(6) .
C41 C43 1.436(5) 2_666
C41 H41 0.9300 .
C42 C43 1.450(5) .
C42 H42 0.9300 .
C43 C44 1.360(6) .
C44 C45 1.427(6) .
C44 C46 1.433(6) .
C47 C49 1.431(6) .
C48 C49 1.419(6) .
C49 C50 1.376(6) .
C50 C51 1.427(5) .
C50 C55 1.432(6) .
C51 C52 1.341(5) .
C51 H51 0.9300 .
C52 C53 1.426(6) .
C52 H52 0.9300 .
C53 C56 1.376(6) .
C53 C54 1.433(5) .
C54 C55 1.338(6) .
C54 H54 0.9300 .
C55 H55 0.9300 .
C56 C58 1.433(6) .
C56 C57 1.436(6) .
loop_
_geom_torsion_atom_site_label_1
_geom_torsion_atom_site_label_2
_geom_torsion_atom_site_label_3
_geom_torsion_atom_site_label_4
_geom_torsion
_geom_torsion_site_symmetry_1
_geom_torsion_site_symmetry_4
C12 N1 C1 C2 179.3(4) . .
C13 N1 C1 C2 1.1(7) . .
C12 N1 C1 C6 1.2(4) . .
C13 N1 C1 C6 -177.0(3) . .
C6 C1 C2 C3 0.4(6) . .
N1 C1 C2 C3 -177.4(4) . .
C13 N2 N3 C16 -1.7(5) . .
C1 C2 C3 C4 -0.3(6) . .
C6 C5 C4 C3 0.4(6) . .
C2 C3 C4 C5 -0.1(7) . .
C4 C5 C6 C1 -0.3(6) . .
C4 C5 C6 C7 178.0(4) . .
C2 C1 C6 C5 -0.1(6) . .
N1 C1 C6 C5 178.1(3) . .
C2 C1 C6 C7 -178.8(4) . .
N1 C1 C6 C7 -0.6(4) . .
C5 C6 C7 C8 2.9(8) . .
C1 C6 C7 C8 -178.6(4) . .
C5 C6 C7 C12 -178.7(4) . .
C1 C6 C7 C12 -0.2(4) . .
C12 C7 C8 C9 0.2(6) . .
C6 C7 C8 C9 178.5(4) . .
C7 C8 C9 C10 -0.8(6) . .
C8 C9 C10 C11 0.2(7) . .
C9 C10 C11 C12 1.0(6) . .
C8 C7 C12 C11 1.0(6) . .
C6 C7 C12 C11 -177.7(4) . .
C8 C7 C12 N1 179.6(3) . .
C6 C7 C12 N1 1.0(4) . .
C10 C11 C12 C7 -1.5(6) . .
C10 C11 C12 N1 -179.9(4) . .
C13 N1 C12 C7 176.9(3) . .
C1 N1 C12 C7 -1.3(4) . .
C13 N1 C12 C11 -4.6(6) . .
C1 N1 C12 C11 177.2(4) . .
N3 N2 C13 C14 2.7(6) . .
N3 N2 C13 N1 179.5(3) . .
C12 N1 C13 N2 141.4(4) . .
C1 N1 C13 N2 -40.7(5) . .
C12 N1 C13 C14 -41.7(5) . .
C1 N1 C13 C14 136.1(4) . .
N2 C13 C14 C15 -2.5(6) . .
N1 C13 C14 C15 -179.1(3) . .
C13 C14 C15 C16 1.3(6) . .
N2 N3 C16 C15 0.6(6) . .
N2 N3 C16 N4 -179.2(3) . .
C14 C15 C16 N3 -0.4(6) . .
C14 C15 C16 N4 179.3(4) . .
C23 N4 C16 N3 43.2(5) . .
C17 N4 C16 N3 -141.2(4) . .
C23 N4 C16 C15 -136.6(4) . .
C17 N4 C16 C15 39.0(6) . .
C23 N4 C17 C18 -176.1(4) . .
C16 N4 C17 C18 7.6(6) . .
C23 N4 C17 C22 0.4(4) . .
C16 N4 C17 C22 -175.9(4) . .
C20 C19 C18 C17 -2.5(6) . .
C22 C17 C18 C19 3.0(6) . .
N4 C17 C18 C19 179.1(4) . .
C18 C19 C20 C21 1.3(7) . .
C19 C20 C21 C22 -0.5(7) . .
C20 C21 C22 C17 1.0(6) . .
C20 C21 C22 C28 -178.5(4) . .
C18 C17 C22 C21 -2.3(6) . .
N4 C17 C22 C21 -179.1(3) . .
C18 C17 C22 C28 177.3(3) . .
N4 C17 C22 C28 0.5(4) . .
C16 N4 C23 C24 -2.3(7) . .
C17 N4 C23 C24 -178.6(4) . .
C16 N4 C23 C28 175.1(3) . .
C17 N4 C23 C28 -1.2(4) . .
C28 C23 C24 C25 1.0(6) . .
N4 C23 C24 C25 178.2(4) . .
C23 C24 C25 C26 -0.1(6) . .
C24 C25 C26 C27 -0.5(7) . .
C25 C26 C27 C28 0.2(6) . .
C26 C27 C28 C23 0.7(6) . .
C26 C27 C28 C22 -180.0(4) . .
C24 C23 C28 C27 -1.3(6) . .
N4 C23 C28 C27 -179.0(3) . .
C24 C23 C28 C22 179.2(4) . .
N4 C23 C28 C22 1.5(4) . .
C21 C22 C28 C27 -1.1(8) . .
C17 C22 C28 C27 179.4(4) . .
C21 C22 C28 C23 178.4(4) . .
C17 C22 C28 C23 -1.2(4) . .
C29 C31 C32 C33 -2.5(6) . .
C30 C31 C32 C33 177.6(4) . .
C29 C31 C32 C37 176.7(4) . .
C30 C31 C32 C37 -3.2(6) . .
C31 C32 C33 C34 179.2(4) . .
C37 C32 C33 C34 -0.1(6) . .
C32 C33 C34 C35 0.3(6) . .
C33 C34 C35 C38 179.8(4) . .
C33 C34 C35 C36 -0.9(6) . .
C38 C35 C36 C37 -179.4(4) . .
C34 C35 C36 C37 1.3(6) . .
C35 C36 C37 C32 -1.0(6) . .
C31 C32 C37 C36 -178.8(4) . .
C33 C32 C37 C36 0.4(6) . .
C36 C35 C38 C39 177.9(4) . .
C34 C35 C38 C39 -2.8(6) . .
C36 C35 C38 C40 -2.9(6) . .
C34 C35 C38 C40 176.4(4) . .
C43 C41 C42 C43 0.6(7) 2_666 .
C41 C42 C43 C44 -179.5(4) . .
C41 C42 C43 C41 -0.5(7) . 2_666
C41 C43 C44 C45 179.9(4) 2_666 .
C42 C43 C44 C45 -1.2(7) . .
C41 C43 C44 C46 1.7(6) 2_666 .
C42 C43 C44 C46 -179.4(4) . .
C48 C49 C50 C51 179.7(4) . .
C47 C49 C50 C51 1.5(6) . .
C48 C49 C50 C55 1.1(7) . .
C47 C49 C50 C55 -177.2(4) . .
C49 C50 C51 C52 -177.5(4) . .
C55 C50 C51 C52 1.2(6) . .
C50 C51 C52 C53 -1.3(6) . .
C51 C52 C53 C56 -177.9(4) . .
C51 C52 C53 C54 1.1(6) . .
C56 C53 C54 C55 178.3(4) . .
C52 C53 C54 C55 -0.7(6) . .
C53 C54 C55 C50 0.6(6) . .
C49 C50 C55 C54 177.9(4) . .
C51 C50 C55 C54 -0.8(6) . .
C52 C53 C56 C58 180.0(4) . .
C54 C53 C56 C58 1.1(7) . .
C52 C53 C56 C57 0.6(6) . .
C54 C53 C56 C57 -178.3(4) . .
