#------------------------------------------------------------------------------
#$Date: 2022-06-02 02:05:51 +0300 (Thu, 02 Jun 2022) $
#$Revision: 275731 $
#$URL: file:///home/coder/svn-repositories/cod/cif/7/71/04/7710403.cif $
#------------------------------------------------------------------------------
#
# This file is available in the Crystallography Open Database (COD),
# http://www.crystallography.net/
#
# All data on this site have been placed in the public domain by the
# contributors.
#
data_7710403
loop_
_publ_author_name
'Shekhovtsov, Nikita'
'Vinogradova, Katerina A.'
'Vorob'eva, Sofia'
'Berezin, Alexey Sergeevich'
'Plyusnin, Victor F.'
'Naumov, Dmitry Y.'
'Pervukhina, Natalie V.'
'Nikolaenkova, Elena B.'
'Tikhonov, Alexsei Ya.'
'Bushuev, Mark B.'
_publ_section_title
;
 N-Hydroxy -- N-oxide photoinduced tautomerization and excitation
 wavelength dependent luminescence of ESIPT-capable zinc(II) complexes
 with a rationally designed 1-hydroxy-2,4-di(pyridin-2-yl)-1H-imidazole
 ESIPT-ligand
;
_journal_name_full               'Dalton Transactions'
_journal_paper_doi               10.1039/D2DT01232D
_journal_year                    2022
_chemical_formula_moiety         'C14 H12 Cl2 N4 O Zn'
_chemical_formula_sum            'C14 H12 Cl2 N4 O Zn'
_chemical_formula_weight         388.55
_space_group_crystal_system      monoclinic
_space_group_IT_number           14
_space_group_name_Hall           '-P 2ybc'
_space_group_name_H-M_alt        'P 1 21/c 1'
_atom_sites_solution_hydrogens   geom
_audit_creation_method           SHELXL-2017/1
_audit_update_record
;
2021-12-03 deposited with the CCDC.	2022-06-01 downloaded from the CCDC.
;
_cell_angle_alpha                90
_cell_angle_beta                 91.408(1)
_cell_angle_gamma                90
_cell_formula_units_Z            4
_cell_length_a                   11.4076(3)
_cell_length_b                   7.9255(2)
_cell_length_c                   16.5642(3)
_cell_measurement_reflns_used    6000
_cell_measurement_temperature    150(2)
_cell_measurement_theta_max      28.30
_cell_measurement_theta_min      2.85
_cell_volume                     1497.13(6)
_computing_cell_refinement       'SAINT (Bruker, 2004)'
_computing_data_collection       'APEX2 (Bruker, 2004)'
_computing_data_reduction        'SAINT (Bruker, 2004)'
_computing_molecular_graphics    'SHELXTL (Bruker, 2004)'
_computing_publication_material  'SHELXTL (Bruker, 2004)'
_computing_structure_refinement  'SHELXL-2017/1 (Sheldrick, 2017)'
_computing_structure_solution    'SHELXTL (Bruker, 2004)'
_diffrn_ambient_temperature      150(2)
_diffrn_measured_fraction_theta_full 0.999
_diffrn_measured_fraction_theta_max 0.999
_diffrn_measurement_device_type  'Bruker Nonius X8Apex CCD area-detector'
_diffrn_measurement_method       '\f scans'
_diffrn_radiation_type           MoK\a
_diffrn_radiation_wavelength     0.71073
_diffrn_reflns_av_R_equivalents  0.0363
_diffrn_reflns_av_unetI/netI     0.0306
_diffrn_reflns_Laue_measured_fraction_full 0.999
_diffrn_reflns_Laue_measured_fraction_max 0.999
_diffrn_reflns_limit_h_max       13
_diffrn_reflns_limit_h_min       -14
_diffrn_reflns_limit_k_max       9
_diffrn_reflns_limit_k_min       -9
_diffrn_reflns_limit_l_max       20
_diffrn_reflns_limit_l_min       -16
_diffrn_reflns_number            10188
_diffrn_reflns_point_group_measured_fraction_full 0.999
_diffrn_reflns_point_group_measured_fraction_max 0.999
_diffrn_reflns_theta_full        25.500
_diffrn_reflns_theta_max         26.019
_diffrn_reflns_theta_min         2.460
_exptl_absorpt_coefficient_mu    2.003
_exptl_absorpt_correction_type   multi-scan
_exptl_absorpt_process_details   'SADABS (Bruker, 2004)'
_exptl_crystal_colour            yellow
_exptl_crystal_density_diffrn    1.724
_exptl_crystal_description       prism
_exptl_crystal_F_000             784
_exptl_crystal_size_max          0.250
_exptl_crystal_size_mid          0.120
_exptl_crystal_size_min          0.080
_exptl_transmission_factor_max   0.7457
_exptl_transmission_factor_min   0.6718
_refine_diff_density_max         0.542
_refine_diff_density_min         -0.333
_refine_diff_density_rms         0.063
_refine_ls_extinction_method     none
_refine_ls_goodness_of_fit_ref   1.032
_refine_ls_hydrogen_treatment    constr
_refine_ls_matrix_type           full
_refine_ls_number_parameters     210
_refine_ls_number_reflns         2951
_refine_ls_number_restraints     0
_refine_ls_restrained_S_all      1.032
_refine_ls_R_factor_all          0.0308
_refine_ls_R_factor_gt           0.0280
_refine_ls_shift/su_max          0.001
_refine_ls_shift/su_mean         0.000
_refine_ls_structure_factor_coef Fsqd
_refine_ls_weighting_details
'w=1/[\s^2^(Fo^2^)+(0.0292P)^2^+1.7071P] where P=(Fo^2^+2Fc^2^)/3'
_refine_ls_weighting_scheme      calc
_refine_ls_wR_factor_gt          0.0712
_refine_ls_wR_factor_ref         0.0723
_reflns_Friedel_coverage         0.000
_reflns_number_gt                2757
_reflns_number_total             2951
_reflns_threshold_expression     'I > 2\s(I)'
_cod_data_source_file            d2dt01232d2.cif
_cod_data_source_block           mbb_252
_cod_original_sg_symbol_H-M      'P 21/c'
_cod_database_code               7710403
_shelx_shelxl_version_number     2017/1
_shelx_space_group_comment
;
The symmetry employed for this shelxl refinement is uniquely defined
by the following loop, which should always be used as a source of
symmetry information in preference to the above space-group names.
They are only intended as comments.
;
_shelx_estimated_absorpt_t_min   0.634
_shelx_estimated_absorpt_t_max   0.856
_shelx_res_file
;
TITL mbb_252 in P2(1)/c
    mbb_252.res
    created by SHELXL-2017/1 at 16:01:40 on 29-Nov-2021
CELL 0.71073 11.4076 7.9255 16.5642 90.000 91.408 90.000
ZERR 4.0000 0.0003 0.0002 0.0003 0.000 0.001 0.000
LATT 1
SYMM -X, 0.5+Y, 0.5-Z
SFAC C H N O ZN CL
UNIT 56 48 16 4 4 8
MERG 2
OMIT 0 180
OMIT 1 0 0
SHEL 99999.00 0.81
FMAP 2
GRID
PLAN 10 0 0
BIND Zn1B N3B
FREE H1B Zn1B
TEMP -123
SIZE 0.25 0.12 0.08
HTAB
BOND $H
CONF
EXYZ C32B N3A
EXYZ C32A N3B
EADP C32B N3A
EADP C32A N3B
HTAB N2 Cl1
HTAB N2 Cl2
HTAB O1 N3A^a
HTAB C32A^a Cl1
EQIV $1 -x, -y+1, -z
HTAB C33 Cl2_$1
EQIV $2 -x, y-1/2, -z+1/2
HTAB C34 Cl1_$2
HTAB C35 Cl2_$2
EQIV $3 x, -y+3/2, z-1/2
HTAB C11 Cl2_$3
EQIV $4 -x+1, y+1/2, -z+1/2
HTAB C25 Cl1_$4
HTAB C32B^b Cl2_$1
HTAB C32B^b O1
L.S. 12
ACTA 51
WGHT    0.029200    1.707100
FVAR       0.12840   0.93301
CL1   6    0.365760    0.564388    0.242940    11.00000    0.03176    0.03545 =
         0.01886    0.00187   -0.00314    0.00574
CL2   6    0.181263    0.896957    0.130685    11.00000    0.02437    0.02306 =
         0.02623   -0.00332    0.00030    0.00398
PART 1
ZN1A  5    0.308131    0.684372    0.128316    21.00000    0.01894    0.01828 =
         0.01617   -0.00191   -0.00095   -0.00045
PART 0
N2    3    0.441607    0.733518    0.049407    11.00000    0.02043    0.01567 =
         0.02223    0.00235   -0.00176    0.00218
PART 2
AFIX  43
H1B   2    0.392341    0.713622    0.088340   -21.00000   -1.20000
PART 0
AFIX   0
N1    3    0.176613    0.388662   -0.064147    11.00000    0.02026    0.02086 =
         0.02264   -0.00210   -0.00644   -0.00223
O1    4    0.105129    0.279128   -0.106982    11.00000    0.03503    0.03596 =
         0.02604   -0.00570   -0.00468   -0.01448
PART 1
AFIX  83
H1A   2    0.055454    0.237578   -0.076093    21.00000   -1.20000
AFIX   0
N3A   3    0.004507    0.248191    0.029130    21.00000    0.01950    0.02200 =
         0.02423    0.00303   -0.00334   -0.00305
C32A  1    0.081881    0.371827    0.150816    21.00000    0.02943    0.04208 =
         0.02936   -0.00855   -0.00140   -0.00420
AFIX  43
H32A  2    0.138363    0.442235    0.177115    21.00000   -1.20000
PART 0
AFIX   0
N4    3    0.254958    0.531192    0.035598    11.00000    0.01640    0.01541 =
         0.01979   -0.00081   -0.00047    0.00127
C2    1    0.317626    0.561526   -0.032775    11.00000    0.01896    0.01603 =
         0.01810    0.00217   -0.00147    0.00344
C1    1    0.269132    0.472425   -0.096974    11.00000    0.02445    0.02084 =
         0.01821    0.00234   -0.00333    0.00512
C3    1    0.169424    0.424114    0.015566    11.00000    0.01719    0.01731 =
         0.02282   -0.00178   -0.00340    0.00305
C31   1    0.083056    0.347776    0.067453    11.00000    0.01600    0.01922 =
         0.02691   -0.00296   -0.00136    0.00199
C33   1   -0.077067    0.171849    0.072569    11.00000    0.02158    0.02775 =
         0.03901    0.00819   -0.00223   -0.00510
AFIX  43
H33   2   -0.132527    0.101151    0.045418    11.00000   -1.20000
AFIX   0
C34   1   -0.084496    0.190867    0.154849    11.00000    0.02357    0.04659 =
         0.03832    0.01025    0.00740    0.00086
AFIX  43
H34   2   -0.144591    0.135825    0.183562    11.00000   -1.20000
AFIX   0
C35   1   -0.003923    0.290329    0.194603    11.00000    0.03401    0.05306 =
         0.02928   -0.00169    0.00894   -0.00008
AFIX  43
H35   2   -0.006504    0.303647    0.251529    11.00000   -1.20000
AFIX   0
C11   1    0.296605    0.452475   -0.183395    11.00000    0.04472    0.04087 =
         0.01600    0.00254    0.00150   -0.00036
AFIX 137
H11A  2    0.245070    0.366586   -0.207775    11.00000   -1.50000
H11B  2    0.378524    0.417428   -0.188187    11.00000   -1.50000
H11C  2    0.284395    0.560210   -0.211394    11.00000   -1.50000
AFIX   0
C21   1    0.420986    0.671067   -0.025633    11.00000    0.01805    0.01342 =
         0.02123    0.00342   -0.00003    0.00402
C22   1    0.495771    0.705273   -0.088589    11.00000    0.02271    0.01941 =
         0.02419    0.00424    0.00228    0.00467
AFIX  43
H22   2    0.479161    0.662845   -0.141276    11.00000   -1.20000
AFIX   0
C23   1    0.594502    0.801813   -0.073347    11.00000    0.02285    0.02046 =
         0.03881    0.01067    0.00657    0.00379
AFIX  43
H23   2    0.646628    0.826701   -0.115588    11.00000   -1.20000
AFIX   0
C24   1    0.617101    0.862156    0.003882    11.00000    0.01790    0.01490 =
         0.05020    0.00565   -0.00561    0.00052
AFIX  43
H24   2    0.685419    0.927018    0.015704    11.00000   -1.20000
AFIX   0
C25   1    0.538082    0.825995    0.063480    11.00000    0.02363    0.01640 =
         0.03326    0.00030   -0.00781    0.00365
AFIX  43
H25   2    0.552863    0.868415    0.116396    11.00000   -1.20000
PART 2
AFIX   0
ZN1B  5    0.238326    0.619053    0.136204   -21.00000    0.07420    0.03204 =
         0.05289   -0.01700   -0.03507    0.01514
N3B   3    0.081881    0.371827    0.150816   -21.00000    0.02943    0.04208 =
         0.02936   -0.00855   -0.00140   -0.00420
C32B  1    0.004507    0.248191    0.029130   -21.00000    0.01950    0.02200 =
         0.02423    0.00303   -0.00334   -0.00305
AFIX  43
H32B  2    0.006890    0.232360   -0.027656   -21.00000   -1.20000
AFIX   0
HKLF 4




REM  mbb_252 in P2(1)/c
REM R1 =  0.0280 for    2757 Fo > 4sig(Fo)  and  0.0308 for all    2951 data
REM    210 parameters refined using      0 restraints

END

WGHT      0.0261      1.4462

REM Instructions for potential hydrogen bonds
HTAB N2 Cl1
HTAB N2 Cl2
HTAB O1 N3A^a
HTAB C32A^a Cl1
HTAB C33 Cl2_$1
HTAB C34 Cl1_$2
HTAB C35 Cl2_$2
HTAB C11 Cl2_$3
HTAB C25 Cl1_$4
HTAB C32B^b Cl2_$1
HTAB C32B^b O1

REM Highest difference peak  0.542,  deepest hole -0.333,  1-sigma level  0.063
Q1    1   0.3586  0.5203 -0.1811  11.00000  0.05    0.54
Q2    1   0.1431  0.3072 -0.1611  11.00000  0.05    0.52
Q3    1   0.0979  0.4481  0.1170  11.00000  0.05    0.52
Q4    1   0.2101  0.9126  0.1733  11.00000  0.05    0.45
Q5    1   0.0192  0.3906  0.1770  11.00000  0.05    0.39
Q6    1   0.3612  0.6221 -0.0355  11.00000  0.05    0.37
Q7    1   0.1124  0.4045  0.0384  11.00000  0.05    0.32
Q8    1   0.4421  0.7132 -0.0602  11.00000  0.05    0.30
Q9    1   0.2120  0.4561 -0.2223  11.00000  0.05    0.29
Q10   1   0.3171  0.4773 -0.0633  11.00000  0.05    0.28
;
_shelx_res_checksum              70776
_shelx_hkl_file
;
  -1   0   0   -0.09    0.02
   1   0   0   -0.10    0.02
  -2   0   0   61.10    2.62
  -2   0   0   60.96    2.62
   2   0   0   63.06    2.62
   2   0   0   57.52    2.62
  -3   0   0  119.87    5.03
  -3   0   0  112.33    4.99
   3   0   0  111.79    4.99
   3   0   0  119.85    5.00
  -4   0   0   23.56    1.03
  -4   0   0   21.73    1.02
   4   0   0   22.99    1.03
  -5   0   0   46.54    1.97
  -5   0   0   41.14    1.96
   5   0   0   45.83    1.97
  -6   0   0   47.60    2.07
   6   0   0   46.13    2.07
  -7   0   0   10.82    0.56
   7   0   0   10.54    0.56
  -8   0   0   72.70    3.25
   8   0   0   74.90    3.25
  -9   0   0    5.02    0.40
   9   0   0    5.62    0.38
 -10   0   0   67.49    2.96
  10   0   0   64.93    2.95
 -11   0   0   22.39    1.10
  11   0   0   21.16    1.08
 -12   0   0    9.23    0.60
  12   0   0    7.61    0.56
 -13   0   0   22.94    1.15
  13   0   0   20.86    1.12
 -14   0   0    4.91    0.49
 -15   0   0   11.92    0.83
 -15   1   0    4.04    0.48
 -14   1   0    7.23    0.65
  13  -1   0    1.24    0.29
 -13   1   0    1.62    0.34
  12  -1   0    5.49    0.48
 -12   1   0    4.85    0.45
  11  -1   0    0.73    0.23
 -11   1   0    0.45    0.21
  10  -1   0    6.25    0.46
 -10   1   0    6.47    0.47
   9  -1   0   44.87    2.01
  -9   1   0   43.81    2.01
   8  -1   0    1.66    0.21
  -8   1   0    2.07    0.24
   7  -1   0   92.47    4.06
  -7   1   0   93.69    4.07
   6  -1   0   27.62    1.28
  -6   1   0   28.85    1.29
   5  -1   0    3.10    0.25
  -5   1   0    3.10    0.25
   4  -1   0   50.12    2.18
  -4   1   0   50.45    2.18
  -4   1   0   48.40    2.18
   3  -1   0   53.31    2.42
   3  -1   0   58.15    2.43
  -3   1   0   57.37    2.42
  -3   1   0   54.14    2.42
   2  -1   0  130.55    5.35
   2  -1   0  118.49    5.26
  -2   1   0  117.67    5.30
  -2   1   0  123.17    5.26
   1  -1   0  165.39    7.53
   1  -1   0  182.09    7.56
  -1   1   0  178.69    7.55
  -1   1   0  169.46    7.52
   0  -1   0   -0.10    0.04
   0  -1   0    0.03    0.04
   0   1   0    0.06    0.05
   0   1   0   -0.08    0.04
  -1  -1   0  168.39    7.41
  -1  -1   0  174.59    7.42
   1   1   0  176.09    7.41
   1   1   0  164.62    7.41
  -2  -1   0  120.49    5.29
  -2  -1   0  125.08    5.31
   2   1   0  124.68    5.28
   2   1   0  117.29    5.28
  -3  -1   0   53.98    2.44
  -3  -1   0   55.72    2.44
   3   1   0   59.01    2.44
  -4  -1   0   50.77    2.20
  -4  -1   0   50.03    2.20
   4   1   0   50.23    2.20
  -5  -1   0    3.04    0.21
  -5  -1   0    2.81    0.23
   5   1   0    3.07    0.22
  -6  -1   0   27.27    1.19
  -6  -1   0   23.80    1.18
   6   1   0   27.36    1.19
  -7  -1   0   91.12    4.02
   7   1   0   93.13    4.02
  -8  -1   0    1.72    0.20
   8   1   0    2.08    0.21
  -9  -1   0   43.10    1.93
   9   1   0   42.11    1.92
 -10  -1   0    7.13    0.46
  10   1   0    5.99    0.43
 -11  -1   0    0.64    0.23
  11   1   0    0.86    0.21
 -12  -1   0    4.54    0.43
  12   1   0    5.49    0.44
 -13  -1   0    0.80    0.28
 -14  -1   0    7.98    0.64
 -15  -1   0    4.28    0.47
  14  -2   0   -0.22    0.28
 -14   2   0    0.00    0.32
  13  -2   0   14.82    0.89
 -13   2   0   15.57    0.91
  12  -2   0    0.51    0.27
 -12   2   0    1.30    0.30
  11  -2   0   12.24    0.73
 -11   2   0   12.93    0.74
  10  -2   0   47.45    2.23
 -10   2   0   50.52    2.24
   9  -2   0   27.25    1.26
  -9   2   0   25.62    1.26
   8  -2   0   25.67    1.23
  -8   2   0   26.50    1.23
   7  -2   0   27.08    1.26
  -7   2   0   26.90    1.26
   6  -2   0    0.21    0.13
  -6   2   0    0.23    0.14
   5  -2   0   44.38    1.99
  -5   2   0   45.36    1.99
   4  -2   0    6.23    0.36
  -4   2   0    6.81    0.37
   3  -2   0   11.11    0.54
  -3   2   0   10.95    0.53
   2  -2   0  307.45   13.48
   2  -2   0  298.78   13.47
  -2   2   0  327.26   13.50
   1  -2   0    3.96    0.23
   1  -2   0    4.12    0.23
  -1   2   0    3.81    0.23
  -1   2   0    3.84    0.23
   0  -2   0  156.61    6.72
   0  -2   0  157.18    6.70
   0   2   0  150.98    6.72
  -1  -2   0    3.58    0.21
  -1  -2   0    3.88    0.22
   1   2   0    3.89    0.21
   1   2   0    3.48    0.21
  -2  -2   0  296.70   13.33
  -2  -2   0  308.51   13.32
   2   2   0  320.09   13.33
  -3  -2   0   10.31    0.50
  -3  -2   0   10.49    0.50
   3   2   0   10.88    0.50
  -4  -2   0    6.32    0.34
  -4  -2   0    6.49    0.35
   4   2   0    6.72    0.34
  -5  -2   0   41.14    1.89
  -5  -2   0   44.19    1.90
   5   2   0   43.52    1.89
  -6  -2   0    0.22    0.10
  -6  -2   0    0.21    0.11
   6   2   0    0.19    0.11
  -7  -2   0   22.32    1.15
  -7  -2   0   28.05    1.18
   7   2   0   25.70    1.16
  -8  -2   0   24.85    1.15
   8   2   0   24.31    1.15
  -9  -2   0   25.84    1.19
   9   2   0   24.41    1.18
 -10  -2   0   46.90    2.10
  10   2   0   45.28    2.09
 -11  -2   0   11.86    0.70
  11   2   0   12.52    0.69
 -12  -2   0    0.66    0.24
 -13  -2   0   13.94    0.83
 -14  -2   0    0.24    0.30
  14  -3   0    2.24    0.40
 -14   3   0    3.26    0.44
  13  -3   0    0.52    0.29
 -13   3   0    0.50    0.31
  12  -3   0    8.06    0.63
 -12   3   0    9.17    0.65
  11  -3   0    0.12    0.22
 -11   3   0    0.77    0.27
  10  -3   0    2.95    0.32
 -10   3   0    3.25    0.35
   9  -3   0   13.69    0.76
  -9   3   0   14.16    0.76
   8  -3   0    3.54    0.33
  -8   3   0    4.01    0.34
   7  -3   0    6.97    0.45
  -7   3   0    7.29    0.45
   6  -3   0   53.49    2.35
  -6   3   0   52.09    2.35
   5  -3   0   24.74    1.16
  -5   3   0   25.33    1.16
   4  -3   0   10.32    0.53
  -4   3   0   10.24    0.52
   3  -3   0    0.65    0.13
  -3   3   0    0.52    0.12
   2  -3   0    0.49    0.12
   2  -3   0    0.56    0.11
  -2   3   0    0.56    0.12
   1  -3   0    6.57    0.34
   1  -3   0    6.36    0.33
  -1   3   0    6.02    0.33
   0  -3   0    0.14    0.10
   0  -3   0    0.12    0.08
   0   3   0    0.08    0.08
  -1  -3   0    6.38    0.33
  -1  -3   0    6.11    0.32
   1   3   0    6.15    0.32
  -2  -3   0    0.43    0.10
  -2  -3   0    0.39    0.09
   2   3   0    0.47    0.09
  -3  -3   0    0.42    0.09
  -3  -3   0    0.65    0.11
   3   3   0    0.80    0.10
  -4  -3   0    9.90    0.50
  -4  -3   0    9.94    0.50
   4   3   0   10.48    0.50
  -5  -3   0   22.21    1.09
  -5  -3   0   24.55    1.10
   5   3   0   25.27    1.09
  -6  -3   0   44.93    2.16
  -6  -3   0   51.22    2.17
   6   3   0   50.40    2.16
  -7  -3   0    6.52    0.40
  -7  -3   0    6.37    0.38
   7   3   0    6.69    0.38
  -8  -3   0    3.26    0.28
   8   3   0    3.21    0.27
  -9  -3   0   13.60    0.70
   9   3   0   12.67    0.68
 -10  -3   0    2.39    0.27
  10   3   0    2.48    0.25
 -11  -3   0    0.20    0.20
 -12  -3   0    8.29    0.58
 -13  -3   0    0.76    0.28
 -14  -3   0    2.91    0.40
  14  -4   0    3.56    0.46
 -14   4   0    4.40    0.51
  13  -4   0    1.04    0.33
 -13   4   0    0.82    0.33
  12  -4   0    0.27    0.28
 -12   4   0    0.27    0.28
  11  -4   0    2.82    0.35
 -11   4   0    3.15    0.38
  10  -4   0    0.94    0.26
 -10   4   0    0.78    0.25
   9  -4   0   17.02    0.90
  -9   4   0   16.73    0.90
   8  -4   0   29.32    1.36
  -8   4   0   27.63    1.35
   7  -4   0   14.70    0.80
  -7   4   0   16.35    0.80
   6  -4   0    5.35    0.39
  -6   4   0    5.51    0.38
   5  -4   0    9.75    0.54
  -5   4   0    9.64    0.53
   4  -4   0   38.09    1.72
  -4   4   0   38.10    1.71
   3  -4   0   35.91    1.62
  -3   4   0   36.12    1.61
   2  -4   0   18.01    0.91
   2  -4   0   20.84    0.93
  -2   4   0   20.89    0.92
   1  -4   0    2.51    0.21
   1  -4   0    3.27    0.24
  -1   4   0    3.35    0.22
   0  -4   0   18.41    0.85
   0  -4   0   18.34    0.86
   0   4   0   18.61    0.85
  -1  -4   0    2.86    0.23
  -1  -4   0    2.59    0.20
   1   4   0    2.97    0.21
  -2  -4   0   19.66    0.90
  -2  -4   0   20.26    0.90
  -2  -4   0   18.58    0.89
   2   4   0   19.38    0.88
  -3  -4   0   31.85    1.50
  -3  -4   0   35.66    1.51
   3   4   0   33.47    1.49
  -4  -4   0   37.50    1.59
  -4  -4   0   33.01    1.58
   4   4   0   35.95    1.57
  -5  -4   0    8.61    0.47
  -5  -4   0    9.73    0.49
   5   4   0    9.10    0.47
  -6  -4   0    4.53    0.31
  -6  -4   0    5.43    0.34
   6   4   0    5.14    0.31
  -7  -4   0   14.38    0.71
  -7  -4   0   12.47    0.69
   7   4   0   15.47    0.70
  -8  -4   0   26.07    1.24
   8   4   0   26.22    1.21
  -9  -4   0   15.85    0.81
   9   4   0   15.20    0.77
 -10  -4   0    0.85    0.22
 -11  -4   0    2.26    0.30
 -12  -4   0    0.06    0.22
 -13  -4   0    0.77    0.28
 -14  -4   0    3.27    0.43
  13  -5   0    1.29    0.37
 -13   5   0    1.31    0.38
  12  -5   0    2.73    0.39
 -12   5   0    2.63    0.39
  11  -5   0    1.86    0.34
 -11   5   0    1.35    0.33
  10  -5   0    7.51    0.58
 -10   5   0    6.53    0.55
   9  -5   0   19.09    1.01
  -9   5   0   19.35    1.01
   8  -5   0   13.33    0.77
  -8   5   0   14.19    0.76
   7  -5   0    8.95    0.58
  -7   5   0    9.38    0.57
   6  -5   0   26.01    1.22
  -6   5   0   24.35    1.20
   5  -5   0    0.05    0.15
  -5   5   0    0.15    0.15
   4  -5   0    9.49    0.55
  -4   5   0   10.45    0.55
   3  -5   0   23.00    1.08
  -3   5   0   22.61    1.06
   2  -5   0   11.40    0.61
  -2   5   0   12.27    0.60
   1  -5   0    0.92    0.15
   1  -5   0    0.97    0.14
  -1   5   0    1.18    0.15
   0  -5   0    0.14    0.10
   0  -5   0    0.31    0.13
   0   5   0    0.12    0.10
  -1  -5   0    1.29    0.17
  -1  -5   0    1.35    0.15
   1   5   0    1.15    0.14
  -2  -5   0   11.72    0.56
  -2  -5   0   10.00    0.54
   2   5   0   10.89    0.53
  -3  -5   0   21.22    0.98
  -3  -5   0   19.58    0.96
  -3  -5   0   21.28    0.98
   3   5   0   21.10    0.95
  -4  -5   0    8.84    0.50
  -4  -5   0   10.14    0.53
   4   5   0   10.12    0.49
  -5  -5   0    0.18    0.14
  -5  -5   0    0.07    0.10
   5   5   0    0.11    0.10
  -6  -5   0   18.82    1.02
  -6  -5   0   23.54    1.05
   6   5   0   22.99    1.01
  -7  -5   0    8.21    0.48
   7   5   0    8.13    0.45
  -8  -5   0   12.42    0.67
   8   5   0   12.21    0.63
  -9  -5   0   18.47    0.94
 -10  -5   0    6.45    0.48
 -11  -5   0    0.67    0.24
 -12  -5   0    2.19    0.33
 -13  -5   0    1.25    0.31
  12  -6   0    0.19    0.31
 -12   6   0   -0.44    0.29
  11  -6   0   18.21    1.03
 -11   6   0   17.09    1.01
  10  -6   0    6.45    0.55
 -10   6   0    6.53    0.54
   9  -6   0    0.84    0.27
  -9   6   0    0.85    0.27
   8  -6   0   10.76    0.68
  -8   6   0   10.49    0.66
   7  -6   0    3.70    0.36
  -7   6   0    3.86    0.35
   6  -6   0   15.08    0.83
  -6   6   0   15.65    0.81
   5  -6   0   85.79    3.70
  -5   6   0   81.33    3.68
   4  -6   0    4.85    0.39
  -4   6   0    4.97    0.37
   3  -6   0   30.81    1.41
  -3   6   0   29.37    1.38
   2  -6   0    1.18    0.19
  -2   6   0    0.95    0.17
   1  -6   0   11.19    0.61
  -1   6   0   11.75    0.59
   0  -6   0    2.17    0.21
   0  -6   0    2.28    0.22
   0   6   0    2.61    0.21
  -1  -6   0    9.63    0.55
  -1  -6   0   11.50    0.58
   1   6   0   11.22    0.55
  -2  -6   0    1.05    0.15
  -2  -6   0    0.88    0.17
   2   6   0    0.91    0.14
  -3  -6   0   28.39    1.27
  -3  -6   0   24.57    1.25
   3   6   0   28.64    1.24
  -4  -6   0    3.78    0.29
  -4  -6   0    4.53    0.34
  -4  -6   0    4.62    0.35
   4   6   0    4.47    0.29
  -5  -6   0   80.65    3.42
   5   6   0   74.31    3.38
  -6  -6   0   14.26    0.77
   6   6   0   14.88    0.72
  -7  -6   0    3.89    0.35
  -8  -6   0    8.89    0.56
  -9  -6   0    1.22    0.25
 -10  -6   0    5.02    0.44
 -11  -6   0   15.01    0.86
 -12  -6   0   -0.05    0.24
  11  -7   0    0.64    0.35
 -11   7   0    1.53    0.37
  10  -7   0    8.07    0.66
 -10   7   0    7.31    0.63
   9  -7   0    6.55    0.58
  -9   7   0    6.77    0.58
   8  -7   0    0.14    0.25
  -8   7   0   -0.30    0.22
   7  -7   0    1.36    0.28
  -7   7   0    1.43    0.26
   6  -7   0   10.39    0.66
  -6   7   0   10.23    0.63
   5  -7   0    1.63    0.27
  -5   7   0    1.60    0.24
   4  -7   0   78.51    3.44
  -4   7   0   75.66    3.41
   3  -7   0    0.75    0.21
  -3   7   0    1.23    0.20
   2  -7   0   17.91    0.91
  -2   7   0   18.16    0.88
   1  -7   0   20.95    1.01
  -1   7   0   19.87    0.97
   0  -7   0    0.29    0.17
   0   7   0    0.61    0.15
  -1  -7   0   19.62    0.96
   1   7   0   19.38    0.92
  -2  -7   0   18.34    0.89
   2   7   0   17.01    0.84
  -3  -7   0    0.68    0.19
   3   7   0    1.03    0.16
  -4  -7   0   71.58    3.18
  -5  -7   0    1.24    0.23
  -6  -7   0    9.15    0.59
  -6  -7   0    9.88    0.59
  -7  -7   0    1.59    0.26
  -8  -7   0    0.14    0.22
  -9  -7   0    6.43    0.54
 -10  -7   0    7.45    0.58
 -11  -7   0    0.84    0.29
   9  -8   0    0.16    0.32
   8  -8   0    7.33    0.61
   7  -8   0    0.50    0.28
   6  -8   0    3.77    0.39
  -6   8   0    4.38    0.43
   5  -8   0   33.02    1.55
  -5   8   0   30.50    1.51
   4  -8   0    1.34    0.26
  -4   8   0    2.06    0.26
   3  -8   0   37.63    1.73
  -3   8   0   35.61    1.69
   2  -8   0    9.34    0.58
  -2   8   0    9.20    0.57
   1  -8   0   23.18    1.15
   0  -8   0   43.21    1.99
  -1  -8   0   22.72    1.12
  -2  -8   0    8.65    0.54
  -3  -8   0   36.62    1.71
  -4  -8   0    1.30    0.24
  -5  -8   0   29.81    1.44
  -6  -8   0    3.42    0.36
  -7  -8   0    0.30    0.23
  -7  -8   0    0.78    0.24
  -8  -8   0    7.41    0.58
  -8  -8   0    7.65    0.57
  -9  -8   0    0.36    0.26
   8  -9   0   -0.19    0.29
   7  -9   0    3.53    0.43
   6  -9   0    1.30    0.33
   5  -9   0    2.43    0.35
   4  -9   0   18.33    1.00
   3  -9   0    0.28    0.25
   2  -9   0    4.78    0.44
   1  -9   0   21.36    1.10
   0  -9   0   -0.25    0.21
  -1  -9   0   20.00    1.03
  -2  -9   0    3.42    0.35
  -3  -9   0    0.21    0.21
  -4  -9   0   16.59    0.90
  -5  -9   0    2.46    0.32
  -6  -9   0    0.95    0.27
  -7  -9   0    3.65    0.40
   4 -10   0    0.23    0.28
   3 -10   0    2.98    0.39
   2 -10   0    4.40    0.45
   1 -10   0    0.19    0.25
   0 -10   0    2.94    0.36
  -1 -10   0    0.40    0.25
  -2 -10   0    3.55    0.39
  -3 -10   0    3.60    0.39
  -4 -10   0    0.10    0.24
  -4 -10   1    6.49    0.54
  -3 -10   1    8.28    0.60
  -2 -10   1    0.23    0.24
  -1 -10   1    6.38    0.54
   0 -10   1    5.66    0.48
   1 -10   1    1.43    0.30
   2 -10   1    7.02    0.59
   3 -10   1    3.04    0.40
   4 -10   1    0.29    0.28
  -7  -9   1    6.89    0.56
  -6  -9   1    3.06    0.35
  -5  -9   1    4.31    0.40
  -4  -9   1   -0.04    0.20
  -3  -9   1    3.50    0.35
  -2  -9   1   10.00    0.62
  -1  -9   1   10.72    0.65
   0  -9   1    4.10    0.37
   1  -9   1   14.90    0.83
   2  -9   1    6.60    0.53
   3  -9   1    1.39    0.28
   4  -9   1    1.19    0.29
   5  -9   1    4.08    0.42
   6  -9   1    0.73    0.30
   7  -9   1    0.56    0.32
  -9  -8   1    0.67    0.28
  -8  -8   1    2.40    0.34
  -8  -8   1    3.30    0.35
  -7  -8   1    0.76    0.24
  -6  -8   1    2.20    0.29
  -5  -8   1    4.65    0.42
  -4  -8   1   13.77    0.75
  -3  -8   1    0.77    0.20
  -2  -8   1    8.17    0.52
  -1  -8   1    4.52    0.38
   0  -8   1    3.00    0.29
   1  -8   1   10.84    0.64
   2  -8   1    1.63    0.26
   3  -8   1    1.57    0.25
   4  -8   1    0.52    0.23
   5  -8   1    1.39    0.27
   6  -8   1    6.38    0.55
   7  -8   1    3.76    0.42
   8  -8   1   -0.26    0.26
   9  -8   1    2.13    0.38
 -11  -7   1    0.03    0.26
 -10  -7   1   -0.04    0.23
  -9  -7   1    1.90    0.30
  -8  -7   1   -0.02    0.21
  -7  -7   1    0.68    0.23
  -6  -7   1   10.06    0.60
  -6  -7   1    9.99    0.59
  -5  -7   1   11.87    0.66
  -4  -7   1    0.47    0.18
  -3  -7   1    0.87    0.18
   2   7  -1   12.16    0.61
  -2  -7   1   12.28    0.65
   1   7  -1    0.18    0.11
  -1  -7   1    0.34    0.15
   0   7  -1    7.24    0.42
   0  -7   1    7.50    0.46
  -1   7  -1    9.65    0.53
   1  -7   1   10.27    0.57
  -2   7  -1   11.10    0.60
   2  -7   1   12.01    0.64
  -3   7  -1    0.52    0.16
   3  -7   1    0.35    0.19
  -4   7  -1    1.53    0.23
   4  -7   1    1.78    0.27
  -5   7  -1    0.13    0.19
   5  -7   1    0.48    0.20
  -6   7  -1    2.62    0.30
   6  -7   1    2.01    0.30
  -7   7  -1    0.20    0.21
   7  -7   1    0.11    0.23
  -8   7  -1    0.28    0.24
   8  -7   1    0.05    0.24
  -9   7  -1    1.91    0.32
   9  -7   1    1.11    0.31
 -10   7  -1    0.11    0.29
  10  -7   1    0.28    0.29
  11  -7   1    0.62    0.34
 -12  -6   1    0.31    0.25
 -11  -6   1    1.93    0.30
 -10  -6   1    0.75    0.22
  -9  -6   1    3.35    0.34
  -8  -6   1   11.98    0.68
  -7  -6   1   19.64    0.98
  -6  -6   1    5.05    0.39
   5   6  -1    5.35    0.31
  -5  -6   1    4.85    0.38
   4   6  -1    9.07    0.46
  -4  -6   1    9.79    0.52
  -4  -6   1    7.73    0.47
  -4  -6   1    9.69    0.51
   3   6  -1   20.25    0.90
  -3  -6   1   17.58    0.91
  -3  -6   1   20.10    0.93
   2   6  -1    6.00    0.32
  -2  -6   1    4.84    0.33
  -2  -6   1    5.85    0.37
   1   6  -1   39.19    1.68
  -1  -6   1   40.23    1.70
  -1  -6   1   33.56    1.68
   0   6  -1   70.31    2.97
   0  -6   1   72.51    2.99
   0  -6   1   60.74    2.98
  -1   6  -1   17.91    0.81
   1  -6   1   14.45    0.80
   1  -6   1   18.59    0.84
  -2   6  -1   31.22    1.44
   2  -6   1   32.01    1.45
  -3   6  -1    3.77    0.30
   3  -6   1    3.57    0.31
  -4   6  -1    8.79    0.50
   4  -6   1    8.62    0.53
  -5   6  -1    9.12    0.54
  -6   6  -1    1.55    0.23
   6  -6   1    1.61    0.27
  -7   6  -1   19.59    1.01
   7  -6   1   20.56    1.03
  -8   6  -1    2.88    0.33
   8  -6   1    3.20    0.37
  -9   6  -1   14.48    0.84
   9  -6   1   14.87    0.86
 -10   6  -1    3.22    0.39
  10  -6   1    3.30    0.39
 -11   6  -1    0.89    0.31
  11  -6   1    0.84    0.35
 -12   6  -1    1.89    0.39
  12  -6   1    1.66    0.38
 -13  -5   1    0.93    0.29
 -12  -5   1    2.73    0.35
 -11  -5   1    0.00    0.21
 -10  -5   1    8.39    0.54
  -9  -5   1   26.09    1.25
  -8  -5   1    1.85    0.23
   7   5  -1   80.99    3.53
  -7  -5   1   80.98    3.57
   6   5  -1    0.24    0.10
  -6  -5   1    0.30    0.11
  -6  -5   1    0.28    0.15
   5   5  -1   27.68    1.20
  -5  -5   1   24.08    1.21
  -5  -5   1   28.28    1.24
   4   5  -1   14.89    0.70
  -4  -5   1   16.41    0.74
  -4  -5   1   13.86    0.72
   3   5  -1    2.20    0.17
  -3  -5   1    1.85    0.17
  -3  -5   1    2.01    0.20
  -3  -5   1    1.94    0.19
   2   5  -1   16.60    0.76
  -2  -5   1   16.90    0.78
  -2  -5   1   15.41    0.76
   1   5  -1    9.15    0.44
  -1  -5   1    8.38    0.45
  -1  -5   1    8.75    0.47
   0   5  -1   58.43    2.49
   0  -5   1   53.97    2.49
   0  -5   1   57.92    2.50
  -1   5  -1   75.91    3.14
   1  -5   1   73.99    3.15
   1  -5   1   65.88    3.14
  -2   5  -1   26.38    1.14
   2  -5   1   25.85    1.15
   2  -5   1   22.64    1.14
  -3   5  -1   46.31    2.09
   3  -5   1   47.76    2.10
  -4   5  -1    0.52    0.15
   4  -5   1    0.60    0.16
  -5   5  -1    4.98    0.36
   5  -5   1    4.62    0.36
  -6   5  -1   37.81    1.75
   6  -5   1   38.69    1.76
  -7   5  -1   18.17    0.92
   7  -5   1   18.16    0.93
  -8   5  -1   14.21    0.79
   8  -5   1   15.02    0.81
  -9   5  -1   30.18    1.46
   9  -5   1   30.38    1.47
 -10   5  -1    6.52    0.55
  10  -5   1    7.73    0.57
 -11   5  -1    3.30    0.40
  11  -5   1    3.50    0.40
 -12   5  -1    0.40    0.32
  12  -5   1    0.26    0.29
 -13   5  -1    2.72    0.43
  13  -5   1    1.86    0.38
 -14  -4   1    9.91    0.72
 -13  -4   1    2.58    0.36
 -12  -4   1    4.72    0.42
 -11  -4   1   30.62    1.47
 -10  -4   1   12.41    0.69
   9   4  -1   18.74    0.92
  -9  -4   1   19.59    0.95
   8   4  -1  150.12    6.59
  -8  -4   1  154.34    6.61
   7   4  -1    8.53    0.44
  -7  -4   1    8.28    0.46
  -7  -4   1    7.62    0.44
   6   4  -1   23.55    1.04
  -6  -4   1   20.92    1.04
  -6  -4   1   23.44    1.05
   5   4  -1   19.32    0.87
  -5  -4   1   18.01    0.88
  -5  -4   1   19.40    0.89
   4   4  -1   11.96    0.56
  -4  -4   1   10.72    0.57
  -4  -4   1   12.78    0.59
   3   4  -1    5.37    0.29
  -3  -4   1    5.28    0.30
  -3  -4   1    5.77    0.33
   2   4  -1    3.02    0.20
  -2  -4   1    3.47    0.23
  -2  -4   1    3.37    0.23
  -2  -4   1    2.82    0.21
   1   4  -1   30.76    1.36
  -1  -4   1   29.85    1.37
  -1  -4   1   31.82    1.38
   0   4  -1   10.36    0.51
   0  -4   1   10.43    0.51
   0  -4   1   11.13    0.52
  -1   4  -1  132.45    5.52
   1  -4   1  125.61    5.52
   1  -4   1  125.05    5.52
  -2   4  -1  173.77    7.23
   2  -4   1  169.36    7.23
   2  -4   1  159.50    7.23
  -3   4  -1    1.90    0.18
   3  -4   1    1.91    0.19
  -4   4  -1    8.63    0.47
   4  -4   1    8.38    0.47
  -5   4  -1   71.78    3.17
   5  -4   1   72.61    3.18
  -6   4  -1    6.63    0.41
   6  -4   1    5.97    0.42
  -7   4  -1  119.43    5.30
   7  -4   1  123.58    5.32
  -8   4  -1   19.48    0.98
   8  -4   1   19.22    0.98
  -9   4  -1    7.15    0.53
   9  -4   1    8.14    0.55
 -10   4  -1   29.75    1.45
  10  -4   1   30.05    1.46
 -11   4  -1    1.07    0.29
  11  -4   1    0.87    0.28
 -12   4  -1    0.64    0.31
  12  -4   1    0.47    0.28
 -13   4  -1    5.07    0.52
  13  -4   1    5.47    0.50
 -14   4  -1    2.44    0.42
  14  -4   1    2.27    0.43
 -14  -3   1   11.17    0.75
 -13  -3   1    0.96    0.27
 -12  -3   1   12.16    0.72
 -11  -3   1    2.97    0.31
  10   3  -1   26.07    1.28
 -10  -3   1   28.97    1.31
   9   3  -1    8.04    0.46
  -9  -3   1    7.64    0.48
   8   3  -1   23.12    1.01
  -8  -3   1   19.36    1.01
  -8  -3   1   22.38    1.03
   7   3  -1   32.74    1.42
  -7  -3   1   29.65    1.43
  -7  -3   1   32.10    1.43
   6   3  -1   12.90    0.60
  -6  -3   1   13.18    0.62
  -6  -3   1   11.51    0.61
   5   3  -1   15.16    0.71
  -5  -3   1   14.49    0.71
  -5  -3   1   15.93    0.72
   4   3  -1  112.59    4.79
  -4  -3   1  106.73    4.80
  -4  -3   1  113.48    4.80
   3   3  -1    0.70    0.10
  -3  -3   1    0.73    0.10
  -3  -3   1    0.66    0.11
   2   3  -1    9.96    0.45
  -2  -3   1    9.33    0.46
  -2  -3   1    9.69    0.47
   1   3  -1   34.13    1.52
  -1  -3   1   36.08    1.53
  -1  -3   1   33.87    1.52
   0   3  -1    6.50    0.31
   0  -3   1    6.03    0.32
   0  -3   1    5.87    0.31
  -1   3  -1   56.80    2.45
   1  -3   1   55.00    2.45
   1  -3   1   57.00    2.45
  -2   3  -1    6.52    0.33
   2  -3   1    5.38    0.32
   2  -3   1    5.97    0.34
  -3   3  -1   40.37    1.75
   3  -3   1   37.34    1.74
   3  -3   1   40.72    1.75
  -4   3  -1  110.68    4.80
   4  -3   1  110.82    4.81
  -5   3  -1   84.61    3.73
   5  -3   1   86.01    3.73
  -6   3  -1  122.08    5.29
   6  -3   1  121.22    5.30
  -7   3  -1    1.45    0.21
   7  -3   1    1.69    0.23
  -8   3  -1   25.28    1.20
   8  -3   1   24.67    1.20
  -9   3  -1   66.81    2.99
   9  -3   1   66.91    2.99
 -10   3  -1    6.25    0.48
  10  -3   1    6.07    0.48
 -11   3  -1   26.60    1.31
  11  -3   1   25.70    1.31
 -12   3  -1   13.13    0.80
  12  -3   1   13.18    0.80
 -13   3  -1    2.22    0.39
  13  -3   1    2.02    0.36
 -14   3  -1    2.89    0.44
  14  -3   1    2.76    0.43
 -14  -2   1   -0.05    0.27
 -13  -2   1   15.00    0.86
 -12  -2   1    2.76    0.31
  11   2  -1   27.14    1.33
 -11  -2   1   29.01    1.35
  10   2  -1   24.44    1.20
 -10  -2   1   26.52    1.22
   9   2  -1    0.22    0.14
  -9  -2   1   -0.13    0.14
   8   2  -1    0.45    0.14
  -8  -2   1    0.71    0.16
  -8  -2   1    0.58    0.13
   7   2  -1    0.66    0.13
  -7  -2   1    0.47    0.14
  -7  -2   1    0.61    0.12
   6   2  -1   28.91    1.27
  -6  -2   1   26.18    1.27
  -6  -2   1   29.88    1.28
   5   2  -1   72.21    3.11
  -5  -2   1   68.28    3.11
  -5  -2   1   73.86    3.11
   4   2  -1   81.00    3.46
  -4  -2   1   82.35    3.46
  -4  -2   1   76.36    3.46
   3   2  -1  218.16    9.42
  -3  -2   1  225.19    9.46
  -3  -2   1  212.13    9.46
   2   2  -1  271.55   11.88
  -2  -2   1  280.06   11.93
   1   2  -1   62.87    2.83
   1   2  -1   66.01    2.83
  -1  -2   1   68.15    2.84
   0   2  -1   62.46    2.62
   0   2  -1   57.71    2.63
   0  -2   1   59.44    2.63
   0  -2   1   63.95    2.67
  -1   2  -1   54.21    2.24
  -1   2  -1   49.89    2.24
   1  -2   1   49.59    2.23
   1  -2   1   52.31    2.24
   2  -2   1 1000.00   43.03
  -3   2  -1  125.14    5.25
   3  -2   1  116.20    5.25
   3  -2   1  123.62    5.25
  -4   2  -1    2.38    0.21
   4  -2   1    2.53    0.21
  -5   2  -1   12.45    0.61
   5  -2   1   12.16    0.61
  -6   2  -1   32.64    1.50
   6  -2   1   33.86    1.51
  -7   2  -1    0.74    0.17
   7  -2   1    0.75    0.16
  -8   2  -1    2.36    0.26
   8  -2   1    2.84    0.27
  -9   2  -1    2.29    0.27
   9  -2   1    3.15    0.31
 -10   2  -1   49.53    2.19
  10  -2   1   45.84    2.18
 -11   2  -1    1.02    0.24
  11  -2   1    1.13    0.27
 -12   2  -1   50.31    2.37
  12  -2   1   52.24    2.38
 -13   2  -1    0.81    0.32
  13  -2   1    1.05    0.30
 -14   2  -1    2.49    0.42
  14  -2   1    2.50    0.40
 -15  -1   1    0.18    0.30
 -14  -1   1    4.84    0.48
 -13  -1   1    1.05    0.28
  12   1  -1   -0.07    0.18
 -12  -1   1   -0.29    0.20
  11   1  -1    1.22    0.22
 -11  -1   1    1.75    0.27
  10   1  -1    0.52    0.17
 -10  -1   1    0.45    0.19
   9   1  -1    5.51    0.38
  -9  -1   1    6.40    0.41
   8   1  -1   21.40    1.04
  -8  -1   1   23.38    1.06
   7   1  -1    0.60    0.13
  -7  -1   1    0.48    0.14
  -7  -1   1    0.52    0.12
   6   1  -1    0.98    0.14
  -6  -1   1    0.86    0.14
  -6  -1   1    0.98    0.13
   5   1  -1   84.92    3.57
  -5  -1   1   84.98    3.57
  -5  -1   1   76.97    3.57
   4   1  -1  149.02    6.36
  -4  -1   1  147.42    6.31
  -4  -1   1  143.33    6.31
   3   1  -1  163.25    7.07
  -3  -1   1  159.89    7.13
  -3  -1   1  167.28    7.10
   2   1  -1  268.15   12.13
   2   1  -1  286.78   12.17
  -2  -1   1  291.22   12.17
   1   1  -1    2.52    0.13
   1   1  -1    2.59    0.13
  -1  -1   1    2.62    0.13
  -1  -1   1    2.61    0.13
   0   1  -1  196.05    8.37
   0   1  -1  187.84    8.37
   0  -1   1  199.24    8.38
  -1   1  -1    6.48    0.34
  -1   1  -1    6.38    0.34
   1  -1   1    6.57    0.34
   1  -1   1    6.92    0.34
  -2   1  -1    1.67    0.15
  -2   1  -1    2.02    0.16
   2  -1   1    2.00    0.16
   2  -1   1    1.92    0.15
  -3   1  -1    4.94    0.26
  -3   1  -1    4.09    0.26
   3  -1   1    4.93    0.27
   3  -1   1    4.33    0.26
  -4   1  -1   12.68    0.61
   4  -1   1   13.08    0.61
  -5   1  -1   29.51    1.35
   5  -1   1   30.79    1.36
  -6   1  -1    2.00    0.20
   6  -1   1    1.94    0.19
  -7   1  -1   34.73    1.59
   7  -1   1   35.31    1.59
  -8   1  -1    5.75    0.39
   8  -1   1    5.53    0.38
  -9   1  -1    2.67    0.27
   9  -1   1    3.61    0.30
 -10   1  -1    0.22    0.18
  10  -1   1    0.24    0.19
 -11   1  -1    3.71    0.39
  11  -1   1    3.96    0.38
 -12   1  -1   11.45    0.70
  12  -1   1   10.14    0.67
 -13   1  -1    7.93    0.65
  13  -1   1    9.01    0.63
 -14   1  -1    7.22    0.60
  14  -1   1    6.44    0.59
 -15   1  -1    2.15    0.41
 -15   0   1   -0.14    0.30
 -14   0   1   -0.02    0.28
 -13   0   1    0.04    0.26
  12   0  -1    0.38    0.21
 -12   0   1   -0.25    0.23
  11   0  -1    0.32    0.19
 -11   0   1    0.05    0.20
  10   0  -1   -0.03    0.15
 -10   0   1    0.08    0.16
   9   0  -1   -0.11    0.14
  -9   0   1    0.02    0.16
   8   0  -1    0.13    0.13
  -8   0   1    0.37    0.15
   7   0  -1    0.11    0.12
  -7   0   1    0.18    0.13
   6   0  -1    0.04    0.11
  -6   0   1    0.02    0.11
  -6   0   1    0.11    0.09
   5   0  -1    0.24    0.10
  -5   0   1    0.22    0.10
  -5   0   1    0.20    0.11
   4   0  -1    0.05    0.09
  -4   0   1    0.21    0.08
  -4   0   1    0.02    0.08
   3   0  -1    0.15    0.07
   3   0  -1    0.08    0.08
  -3   0   1    0.07    0.07
  -3   0   1    0.13    0.07
   2   0  -1    0.02    0.05
   2   0  -1    0.01    0.05
  -2   0   1    0.07    0.05
  -2   0   1   -0.02    0.05
   1   0  -1    0.04    0.03
   1   0  -1   -0.02    0.03
  -1   0   1   -0.02    0.02
  -1   0   1    0.03    0.02
   0   0  -1   -0.38    0.01
   0   0  -1   -0.37    0.01
   0   0   1   -0.37    0.00
   0   0   1   -0.37    0.01
  -1   0  -1   -0.16    0.03
  -1   0  -1   -0.18    0.03
   1   0   1   -0.15    0.03
   1   0   1   -0.18    0.03
  -2   0  -1    0.22    0.07
  -2   0  -1    0.06    0.06
   2   0   1    0.28    0.06
   2   0   1    0.08    0.06
  -3   0  -1    0.13    0.08
  -3   0  -1    0.11    0.09
   3   0   1    0.13    0.09
   3   0   1    0.20    0.09
  -4   0  -1   -0.05    0.09
  -4   0  -1    0.02    0.09
   4   0   1    0.03    0.09
  -5   0  -1    0.07    0.09
   5   0   1    0.19    0.12
  -6   0  -1    0.10    0.10
   6   0   1   -0.17    0.11
  -7   0  -1    0.13    0.13
   7   0   1   -0.12    0.12
  -8   0  -1    0.05    0.14
   8   0   1    0.15    0.13
  -9   0  -1   -0.08    0.15
   9   0   1    0.11    0.15
 -10   0  -1    0.31    0.20
  10   0   1    0.11    0.17
 -11   0  -1    0.18    0.21
  11   0   1    0.09    0.20
 -12   0  -1    0.13    0.24
  12   0   1   -0.30    0.21
 -13   0  -1   -0.04    0.25
  13   0   1    0.16    0.24
 -14   0  -1   -0.15    0.27
 -15   0  -1   -0.13    0.30
 -15   1   1   -0.04    0.32
 -14   1   1    5.34    0.50
  13  -1  -1    1.72    0.30
 -13   1   1    1.51    0.33
  12  -1  -1   -0.15    0.20
 -12   1   1    0.10    0.23
  11  -1  -1    1.56    0.26
 -11   1   1    1.33    0.26
  10  -1  -1    0.60    0.20
 -10   1   1    0.25    0.19
   9  -1  -1    5.77    0.40
  -9   1   1    5.52    0.41
   8  -1  -1   22.70    1.08
  -8   1   1   22.64    1.08
   7  -1  -1    0.75    0.16
  -7   1   1    0.44    0.14
   6  -1  -1    0.72    0.14
  -6   1   1    0.67    0.14
   5  -1  -1   89.80    3.87
  -5   1   1   88.39    3.87
   4  -1  -1  149.70    6.38
  -4   1   1  151.28    6.38
  -4   1   1  142.70    6.37
   3  -1  -1  152.28    6.75
   3  -1  -1  165.32    6.76
  -3   1   1  153.13    6.75
   2  -1  -1  284.47   12.35
  -2   1   1  291.74   12.35
  -2   1   1  280.44   12.32
   1  -1  -1    2.79    0.16
  -1   1   1    2.73    0.16
  -1   1   1    2.48    0.16
   0  -1  -1  185.32    8.09
   0  -1  -1  192.59    8.10
   0   1   1  186.08    8.08
   0   1   1  184.18    8.09
  -1  -1  -1    6.55    0.35
  -1  -1  -1    6.72    0.35
   1   1   1    6.87    0.35
   1   1   1    6.90    0.35
  -2  -1  -1    1.75    0.15
   2   1   1    1.90    0.15
   2   1   1    1.64    0.15
  -3  -1  -1    4.54    0.27
  -3  -1  -1    4.93    0.27
   3   1   1    4.89    0.27
  -4  -1  -1   13.30    0.61
  -4  -1  -1   12.35    0.60
   4   1   1   12.68    0.60
  -5  -1  -1   26.50    1.28
  -5  -1  -1   29.70    1.29
   5   1   1   29.58    1.29
  -6  -1  -1    1.68    0.17
   6   1   1    1.65    0.17
  -7  -1  -1   35.21    1.61
   7   1   1   36.09    1.61
  -8  -1  -1    5.75    0.38
   8   1   1    5.70    0.37
  -9  -1  -1    3.66    0.33
   9   1   1    3.56    0.30
 -10  -1  -1   -0.05    0.18
  10   1   1    0.20    0.16
 -11  -1  -1    3.11    0.33
  11   1   1    2.82    0.29
 -12  -1  -1   10.17    0.65
  12   1   1    9.47    0.62
 -13  -1  -1    7.44    0.59
 -14  -1  -1    7.07    0.61
 -15  -1  -1    2.44    0.40
 -14   2   1    0.41    0.33
  13  -2  -1   15.51    0.93
 -13   2   1   17.27    0.96
  12  -2  -1    3.69    0.37
 -12   2   1    2.59    0.37
  11  -2  -1   30.65    1.44
 -11   2   1   28.96    1.44
  10  -2  -1   25.84    1.26
 -10   2   1   26.40    1.27
   9  -2  -1    0.28    0.17
  -9   2   1    0.00    0.16
   8  -2  -1    0.59    0.18
  -8   2   1    0.68    0.17
   7  -2  -1    0.77    0.16
  -7   2   1    0.67    0.17
   6  -2  -1   29.12    1.35
  -6   2   1   29.92    1.35
   5  -2  -1   77.99    3.38
  -5   2   1   76.52    3.37
   4  -2  -1   83.85    3.60
  -4   2   1   81.59    3.60
   3  -2  -1  229.08    9.98
  -3   2   1  232.83    9.93
   2  -2  -1  277.48   11.97
   2  -2  -1  263.91   11.86
  -2   2   1  283.25   11.93
   1  -2  -1   67.34    2.81
   1  -2  -1   64.67    2.81
  -1   2   1   62.34    2.81
  -1   2   1   64.95    2.81
   0  -2  -1   58.55    2.49
   0  -2  -1   60.47    2.50
   0   2   1   54.49    2.49
   0   2   1   53.77    2.49
   0   2   1   60.34    2.49
  -1  -2  -1   49.07    2.17
  -1  -2  -1   50.99    2.17
   1   2   1   46.86    2.17
   1   2   1   52.74    2.17
  -3  -2  -1  119.05    5.17
  -3  -2  -1  119.90    5.17
   3   2   1  120.74    5.17
  -4  -2  -1    2.12    0.18
  -4  -2  -1    2.58    0.20
   4   2   1    1.85    0.16
  -5  -2  -1   11.01    0.59
  -5  -2  -1   12.82    0.60
   5   2   1   12.97    0.60
  -6  -2  -1   29.80    1.42
  -6  -2  -1   32.99    1.42
   6   2   1   31.54    1.42
  -7  -2  -1    1.15    0.17
   7   2   1    0.75    0.15
  -8  -2  -1    2.32    0.23
   8   2   1    1.98    0.22
  -9  -2  -1    2.44    0.26
   9   2   1    1.99    0.23
 -10  -2  -1   45.63    2.10
  10   2   1   46.19    2.09
 -11  -2  -1    1.00    0.23
  11   2   1    1.24    0.24
 -12  -2  -1   50.91    2.24
  12   2   1   45.71    2.21
 -13  -2  -1    0.92    0.28
 -14  -2  -1    1.63    0.34
  14  -3  -1   12.25    0.84
 -14   3   1   13.40    0.88
  13  -3  -1    1.04    0.30
 -13   3   1    0.89    0.32
  12  -3  -1   13.23    0.81
 -12   3   1   13.48    0.83
  11  -3  -1    3.29    0.35
 -11   3   1    3.34    0.36
  10  -3  -1   30.37    1.48
 -10   3   1   31.40    1.48
   9  -3  -1    8.43    0.55
  -9   3   1    8.79    0.55
   8  -3  -1   25.02    1.19
  -8   3   1   24.71    1.19
   7  -3  -1   35.25    1.61
  -7   3   1   34.98    1.61
   6  -3  -1   14.16    0.71
  -6   3   1   13.91    0.71
   5  -3  -1   16.47    0.79
  -5   3   1   15.97    0.78
   4  -3  -1  116.31    5.15
  -4   3   1  121.38    5.15
   3  -3  -1    1.01    0.15
  -3   3   1    0.86    0.14
   2  -3  -1   10.49    0.50
   2  -3  -1    9.11    0.48
  -2   3   1   10.11    0.50
   1  -3  -1   36.00    1.56
   1  -3  -1   33.75    1.55
  -1   3   1   35.67    1.55
   0  -3  -1    5.99    0.33
   0  -3  -1    6.07    0.33
   0   3   1    6.33    0.33
  -1  -3  -1   54.87    2.34
  -1  -3  -1   50.50    2.33
   1   3   1   55.32    2.34
  -2  -3  -1    6.66    0.35
  -2  -3  -1    5.83    0.33
   2   3   1    6.07    0.34
  -3  -3  -1   40.04    1.74
  -3  -3  -1   36.76    1.74
   3   3   1   41.48    1.74
  -4  -3  -1  100.85    4.64
  -4  -3  -1  111.67    4.65
   4   3   1  109.01    4.64
  -5  -3  -1   81.05    3.47
  -5  -3  -1   73.73    3.47
   5   3   1   83.67    3.47
  -6  -3  -1  118.26    4.92
  -6  -3  -1  103.43    4.91
   6   3   1  117.32    4.91
  -7  -3  -1    1.31    0.18
   7   3   1    1.63    0.18
  -8  -3  -1   24.12    1.14
   8   3   1   23.76    1.12
  -9  -3  -1   63.00    2.77
   9   3   1   61.15    2.76
 -10  -3  -1    6.30    0.46
  10   3   1    5.80    0.42
 -11  -3  -1   24.17    1.18
  11   3   1   22.90    1.15
 -12  -3  -1   13.74    0.80
 -13  -3  -1    1.86    0.33
 -14  -3  -1    2.30    0.37
  14  -4  -1   11.89    0.82
 -14   4   1   11.75    0.84
  13  -4  -1    2.34    0.39
 -13   4   1    3.25    0.44
  12  -4  -1    4.70    0.48
 -12   4   1    5.37    0.50
  11  -4  -1   36.43    1.75
 -11   4   1   36.36    1.75
  10  -4  -1   14.73    0.85
 -10   4   1   15.49    0.85
   9  -4  -1   22.27    1.10
  -9   4   1   21.63    1.10
   8  -4  -1  171.51    7.40
  -8   4   1  168.43    7.39
   7  -4  -1    8.53    0.55
  -7   4   1    9.52    0.55
   6  -4  -1   24.35    1.18
  -6   4   1   25.60    1.18
   5  -4  -1   20.92    1.00
  -5   4   1   21.04    1.00
   4  -4  -1   12.60    0.63
  -4   4   1   11.76    0.62
   3  -4  -1    5.76    0.37
  -3   4   1    5.92    0.36
   2  -4  -1    2.86    0.25
  -2   4   1    3.28    0.24
   1  -4  -1   31.69    1.38
   1  -4  -1   27.93    1.37
  -1   4   1   31.99    1.37
   0  -4  -1   10.29    0.55
   0  -4  -1   12.23    0.56
   0   4   1   11.14    0.55
  -1  -4  -1  115.92    5.35
  -1  -4  -1  132.02    5.37
   1   4   1  123.76    5.35
  -2  -4  -1  154.01    6.92
  -2  -4  -1  159.91    6.92
  -2  -4  -1  160.91    6.92
   2   4   1  166.19    6.91
  -3  -4  -1    2.87    0.23
  -3  -4  -1    1.96    0.18
   3   4   1    2.56    0.21
  -4  -4  -1    7.09    0.42
  -4  -4  -1    8.46    0.44
   4   4   1    8.16    0.42
  -5  -4  -1   62.15    2.91
  -5  -4  -1   71.50    2.93
   5   4   1   65.50    2.91
  -6  -4  -1    6.27    0.38
  -6  -4  -1    5.34    0.35
   6   4   1    5.73    0.35
  -7  -4  -1  115.20    4.94
   7   4   1  111.06    4.92
  -8  -4  -1   18.52    0.89
   8   4   1   17.15    0.87
  -9  -4  -1    7.73    0.49
   9   4   1    6.76    0.44
 -10  -4  -1   27.62    1.34
 -11  -4  -1    1.09    0.25
 -12  -4  -1    0.12    0.23
 -13  -4  -1    4.65    0.46
 -14  -4  -1    2.40    0.39
  13  -5  -1    0.46    0.32
 -13   5   1    1.81    0.39
  12  -5  -1    2.88    0.42
 -12   5   1    3.43    0.43
  11  -5  -1    0.16    0.27
 -11   5   1    0.00    0.27
  10  -5  -1   10.00    0.66
 -10   5   1    9.63    0.67
   9  -5  -1   29.27    1.42
  -9   5   1   28.55    1.41
   8  -5  -1    2.90    0.32
  -8   5   1    3.01    0.32
   7  -5  -1   86.60    3.93
  -7   5   1   91.09    3.93
   6  -5  -1    0.20    0.18
  -6   5   1    0.29    0.17
   5  -5  -1   29.71    1.38
  -5   5   1   29.08    1.37
   4  -5  -1   16.38    0.81
  -4   5   1   15.89    0.80
   3  -5  -1    2.51    0.24
  -3   5   1    2.07    0.21
   2  -5  -1   16.54    0.82
  -2   5   1   17.02    0.81
   1  -5  -1    8.97    0.51
  -1   5   1    9.82    0.49
   0  -5  -1   59.78    2.50
   0  -5  -1   52.30    2.49
   0   5   1   57.35    2.48
  -1  -5  -1   77.85    3.22
  -1  -5  -1   66.93    3.20
   1   5   1   75.31    3.20
  -2  -5  -1   22.94    1.12
  -2  -5  -1   25.27    1.14
   2   5   1   25.30    1.12
  -3  -5  -1   45.65    1.96
  -3  -5  -1   38.67    1.94
  -3  -5  -1   45.31    1.96
   3   5   1   45.31    1.94
  -4  -5  -1    0.37    0.15
  -4  -5  -1    0.45    0.12
   4   5   1    0.53    0.12
  -5  -5  -1    4.38    0.34
  -5  -5  -1    3.49    0.28
   5   5   1    4.51    0.29
  -6  -5  -1   33.39    1.48
  -6  -5  -1   28.94    1.47
   6   5   1   33.43    1.45
  -7  -5  -1   17.02    0.85
   7   5   1   16.46    0.82
  -8  -5  -1   13.54    0.72
   8   5   1   12.85    0.68
  -9  -5  -1   29.56    1.41
 -10  -5  -1    7.20    0.53
 -11  -5  -1    3.76    0.39
 -12  -5  -1    0.58    0.27
 -13  -5  -1    2.23    0.36
  12  -6  -1    0.08    0.31
 -12   6   1   -0.29    0.32
  11  -6  -1    2.13    0.39
 -11   6   1    2.64    0.39
  10  -6  -1    1.08    0.31
 -10   6   1    0.88    0.30
   9  -6  -1    4.69    0.45
  -9   6   1    5.22    0.46
   8  -6  -1   14.95    0.85
  -8   6   1   14.43    0.82
   7  -6  -1   22.03    1.11
  -7   6   1   21.52    1.09
   6  -6  -1    5.74    0.44
  -6   6   1    4.72    0.41
   5  -6  -1    5.26    0.43
  -5   6   1    4.99    0.40
   4  -6  -1   10.61    0.60
  -4   6   1   10.61    0.59
   3  -6  -1   22.29    1.06
  -3   6   1   21.45    1.04
   2  -6  -1    6.21    0.42
  -2   6   1    6.28    0.39
   1  -6  -1   40.61    1.83
  -1   6   1   39.84    1.81
   0  -6  -1   72.01    3.16
   0   6   1   71.00    3.14
  -1  -6  -1   18.71    0.91
   1   6   1   18.44    0.88
  -2  -6  -1   27.46    1.41
  -2  -6  -1   33.17    1.43
   2   6   1   31.59    1.40
  -3  -6  -1    3.40    0.29
  -3  -6  -1    2.70    0.25
   3   6   1    3.24    0.25
  -4  -6  -1    6.82    0.43
  -4  -6  -1    8.07    0.48
  -4  -6  -1    7.42    0.47
   4   6   1    8.47    0.44
  -5  -6  -1    9.31    0.54
   5   6   1    8.60    0.49
  -6  -6  -1    1.93    0.26
   6   6   1    1.88    0.21
  -7  -6  -1   17.58    0.91
  -8  -6  -1    2.69    0.30
  -9  -6  -1   13.59    0.78
 -10  -6  -1    3.46    0.36
 -11  -6  -1    0.90    0.27
 -12  -6  -1    1.48    0.32
  11  -7  -1    0.08    0.31
 -11   7   1    0.53    0.31
  10  -7  -1   -0.01    0.29
 -10   7   1    0.31    0.30
   9  -7  -1    2.51    0.38
  -9   7   1    2.25    0.36
   8  -7  -1   -0.08    0.25
  -8   7   1    0.11    0.24
   7  -7  -1    0.66    0.26
  -7   7   1    0.28    0.23
   6  -7  -1   11.43    0.70
  -6   7   1   11.17    0.67
   5  -7  -1   13.87    0.75
  -5   7   1   11.73    0.71
   4  -7  -1    0.42    0.20
  -4   7   1    0.30    0.18
   3  -7  -1    0.59    0.20
  -3   7   1    0.84    0.19
   2  -7  -1   13.67    0.73
  -2   7   1   13.09    0.70
   1  -7  -1    0.05    0.16
  -1   7   1    0.18    0.14
   0  -7  -1    7.92    0.48
   0   7   1    7.08    0.44
  -1  -7  -1    9.98    0.58
   1   7   1    9.87    0.54
  -2  -7  -1   12.36    0.65
   2   7   1   10.79    0.60
  -3  -7  -1    0.23    0.17
   3   7   1    0.40    0.14
  -4  -7  -1    1.22    0.22
   4   7   1    1.67    0.19
  -5  -7  -1    0.18    0.19
  -6  -7  -1    1.99    0.28
  -6  -7  -1    2.09    0.28
  -7  -7  -1    0.09    0.21
  -8  -7  -1    0.44    0.23
  -9  -7  -1    1.48    0.29
 -10  -7  -1    0.50    0.26
 -11  -7  -1    0.43    0.29
   9  -8  -1    0.78    0.34
   8  -8  -1    2.82    0.40
  -8   8   1    3.14    0.39
   7  -8  -1    1.07    0.31
  -7   8   1    1.26    0.29
   6  -8  -1    3.23    0.39
  -6   8   1    3.33    0.36
   5  -8  -1    4.58    0.42
  -5   8   1    4.41    0.38
   4  -8  -1   14.80    0.82
  -4   8   1   13.82    0.78
   3  -8  -1    0.67    0.23
  -3   8   1    1.04    0.22
   2  -8  -1    7.96    0.54
  -2   8   1    7.54    0.50
   1  -8  -1    3.87    0.37
  -1   8   1    5.08    0.38
   0  -8  -1    2.80    0.31
   0   8   1    4.02    0.34
  -1  -8  -1   10.33    0.62
  -2  -8  -1    1.74    0.26
  -3  -8  -1    1.19    0.24
  -4  -8  -1    0.62    0.22
  -5  -8  -1    1.67    0.27
  -6  -8  -1    5.94    0.50
  -7  -8  -1    3.16    0.35
  -7  -8  -1    2.45    0.33
  -8  -8  -1    0.24    0.24
  -8  -8  -1    0.36    0.25
  -9  -8  -1    1.58    0.33
   7  -9  -1    8.44    0.69
   6  -9  -1    4.12    0.47
   5  -9  -1    4.75    0.47
   4  -9  -1    0.08    0.25
   3  -9  -1    4.80    0.45
   2  -9  -1   11.00    0.69
   1  -9  -1   11.10    0.70
   0  -9  -1    3.73    0.37
  -1  -9  -1   16.72    0.91
  -2  -9  -1    6.41    0.51
  -3  -9  -1    1.80    0.29
  -4  -9  -1    0.81    0.25
  -5  -9  -1    3.31    0.37
  -6  -9  -1    0.71    0.26
  -7  -9  -1    0.52    0.27
   4 -10  -1    7.94    0.66
   3 -10  -1   10.61    0.74
   2 -10  -1    0.08    0.26
   1 -10  -1    6.47    0.56
   0 -10  -1    6.45    0.56
  -1 -10  -1    1.03    0.29
  -2 -10  -1    6.98    0.58
  -3 -10  -1    2.99    0.38
  -4 -10  -1    0.09    0.24
  -4 -10   2    0.62    0.25
  -3 -10   2    4.53    0.42
  -2 -10   2    1.93    0.30
  -1 -10   2    4.85    0.43
   0 -10   2    0.68    0.24
   1 -10   2   13.77    0.81
   2 -10   2    0.18    0.25
   3 -10   2    1.43    0.32
   4 -10   2    0.65    0.29
  -7  -9   2    0.58    0.26
  -6  -9   2    6.71    0.53
  -5  -9   2    3.08    0.34
  -4  -9   2    1.08    0.24
  -3  -9   2    4.64    0.42
  -2  -9   2    7.27    0.51
  -1  -9   2    1.94    0.27
   0  -9   2    7.71    0.53
   1  -9   2    0.70    0.22
   2  -9   2    5.38    0.48
   3  -9   2    5.76    0.49
   4  -9   2    0.36    0.24
   5  -9   2    3.78    0.41
   6  -9   2    5.65    0.50
   7  -9   2    0.54    0.30
  -9  -8   2    4.20    0.42
  -9  -8   2    4.56    0.44
  -8  -8   2    0.63    0.24
  -8  -8   2    0.37    0.23
  -7  -8   2    7.10    0.52
  -6  -8   2   10.34    0.62
  -5  -8   2   12.29    0.69
  -4  -8   2   26.96    1.29
  -3  -8   2   24.81    1.19
  -2  -8   2   17.86    0.90
  -1  -8   2   10.58    0.60
   0  -8   2    2.66    0.28
   1  -8   2    7.21    0.48
   2  -8   2   16.71    0.88
   3  -8   2    0.25    0.20
   4  -8   2   10.00    0.64
   5  -8   2    0.48    0.23
   6  -8   2    2.90    0.35
   7  -8   2    1.52    0.32
   8  -8   2   15.94    0.95
   9  -8   2    5.14    0.53
 -11  -7   2    7.12    0.58
 -10  -7   2    0.86    0.27
  -9  -7   2    5.18    0.43
  -8  -7   2    4.97    0.45
  -7  -7   2   12.95    0.72
  -6  -7   2    0.73    0.20
  -6  -7   2    0.41    0.19
  -5  -7   2   51.80    2.33
  -4  -7   2   10.00    0.57
  -3  -7   2   93.76    4.11
  -2  -7   2   22.50    1.07
   1   7  -2   19.39    0.92
  -1  -7   2   20.20    0.96
   0   7  -2    3.02    0.25
   0  -7   2    3.45    0.28
  -1   7  -2    6.16    0.37
   1  -7   2    5.89    0.41
  -2   7  -2    4.17    0.31
   2  -7   2    3.85    0.35
  -3   7  -2   51.74    2.36
   3  -7   2   53.87    2.39
  -4   7  -2    5.93    0.42
   4  -7   2    6.37    0.46
  -5   7  -2   48.53    2.21
   5  -7   2   49.00    2.23
  -6   7  -2    1.84    0.26
   6  -7   2    2.39    0.32
  -7   7  -2   10.27    0.64
   7  -7   2   10.83    0.68
  -8   7  -2    0.93    0.27
   8  -7   2    0.44    0.26
  -9   7  -2    0.49    0.28
   9  -7   2    0.51    0.28
  10  -7   2    3.41    0.44
  11  -7   2   11.21    0.82
 -12  -6   2   17.99    0.99
 -11  -6   2    5.67    0.49
 -10  -6   2    7.07    0.51
  -9  -6   2   12.71    0.70
  -8  -6   2    5.68    0.43
  -7  -6   2    3.17    0.29
  -6  -6   2   47.50    2.14
   5   6  -2    1.82    0.16
  -5  -6   2    1.77    0.21
   4   6  -2   30.71    1.31
  -4  -6   2   25.66    1.32
  -4  -6   2   29.61    1.34
  -4  -6   2   30.84    1.35
   3   6  -2    1.48    0.14
  -3  -6   2    1.69    0.17
  -3  -6   2    2.03    0.20
   2   6  -2   16.44    0.73
  -2  -6   2   15.83    0.76
  -2  -6   2   14.42    0.74
   1   6  -2    0.39    0.10
  -1  -6   2    0.44    0.13
  -1  -6   2    0.26    0.10
   0   6  -2    4.34    0.28
   0  -6   2    4.55    0.31
   0  -6   2    4.11    0.28
  -1   6  -2   36.31    1.53
   1  -6   2   35.52    1.55
   1  -6   2   30.46    1.53
  -2   6  -2   22.77    1.01
   2  -6   2   22.98    1.03
   2  -6   2   19.07    1.00
  -3   6  -2   15.61    0.77
   3  -6   2   15.83    0.80
  -4   6  -2  107.14    4.79
   4  -6   2  112.53    4.81
  -5   6  -2    5.96    0.42
   5  -6   2    6.55    0.45
  -6   6  -2    1.94    0.25
   6  -6   2    2.78    0.31
  -7   6  -2   13.70    0.75
   7  -6   2   13.26    0.77
  -8   6  -2    1.11    0.25
   8  -6   2    1.59    0.30
  -9   6  -2    1.69    0.30
   9  -6   2    1.97    0.31
 -10   6  -2   15.85    0.93
  10  -6   2   17.04    0.95
 -11   6  -2    1.86    0.37
  11  -6   2    2.20    0.38
 -12   6  -2    5.05    0.51
  12  -6   2    5.17    0.52
 -13  -5   2    4.54    0.43
 -12  -5   2    3.79    0.38
 -11  -5   2    3.21    0.33
 -10  -5   2    5.00    0.42
  -9  -5   2    1.19    0.21
  -8  -5   2    3.83    0.33
   7   5  -2   10.03    0.50
  -7  -5   2   10.03    0.55
   6   5  -2    6.15    0.32
  -6  -5   2    5.76    0.36
  -6  -5   2    5.30    0.34
   5   5  -2    5.84    0.32
  -5  -5   2    5.42    0.33
  -5  -5   2    6.71    0.37
   4   5  -2    2.45    0.17
  -4  -5   2    2.41    0.21
  -4  -5   2    2.00    0.19
   3   5  -2    0.50    0.09
  -3  -5   2    0.34    0.09
  -3  -5   2    0.33    0.12
  -3  -5   2    0.22    0.12
   2   5  -2    5.55    0.30
  -2  -5   2    5.58    0.32
  -2  -5   2    5.91    0.35
   1   5  -2    4.97    0.27
  -1  -5   2    5.24    0.31
  -1  -5   2    4.49    0.29
   0   5  -2    0.46    0.10
   0  -5   2    0.35    0.12
   0  -5   2    0.38    0.10
  -1   5  -2    7.20    0.38
   1  -5   2    6.93    0.38
   1  -5   2    7.07    0.40
  -2   5  -2    9.45    0.50
   2  -5   2    9.55    0.51
   2  -5   2   11.09    0.53
  -3   5  -2   21.67    1.01
   3  -5   2   21.61    1.02
  -4   5  -2    3.99    0.30
   4  -5   2    4.14    0.32
  -5   5  -2   12.19    0.63
   5  -5   2   11.70    0.65
  -6   5  -2   85.88    3.79
   6  -5   2   86.22    3.80
  -7   5  -2    2.51    0.29
   7  -5   2    3.50    0.34
  -8   5  -2    6.44    0.47
   8  -5   2    6.29    0.48
  -9   5  -2    4.10    0.38
   9  -5   2    4.05    0.41
 -10   5  -2    0.63    0.26
  10  -5   2    0.65    0.26
 -11   5  -2    6.27    0.54
  11  -5   2    7.99    0.60
 -12   5  -2    0.42    0.29
  12  -5   2    0.29    0.31
 -13   5  -2    0.45    0.35
  13  -5   2    0.84    0.34
 -14  -4   2   -0.17    0.26
 -13  -4   2    2.75    0.36
 -12  -4   2    0.70    0.24
 -11  -4   2    0.04    0.19
 -10  -4   2    2.56    0.28
  -9  -4   2   14.77    0.76
   8   4  -2    2.08    0.20
  -8  -4   2    2.24    0.23
   7   4  -2    0.42    0.11
  -7  -4   2    0.52    0.14
  -7  -4   2    0.59    0.12
   6   4  -2    1.11    0.12
  -6  -4   2    0.81    0.13
  -6  -4   2    1.01    0.15
   5   4  -2    1.79    0.15
  -5  -4   2    2.08    0.18
  -5  -4   2    2.15    0.19
   4   4  -2    3.47    0.21
  -4  -4   2    3.52    0.24
   3   4  -2    3.70    0.21
  -3  -4   2    3.64    0.25
   2   4  -2   19.10    0.84
  -2  -4   2   18.81    0.86
  -2  -4   2   18.73    0.86
   1   4  -2   28.17    1.29
  -1  -4   2   30.39    1.30
   0   4  -2    0.78    0.10
   0  -4   2    0.81    0.10
   0  -4   2    0.85    0.12
  -1   4  -2   35.07    1.55
   1  -4   2   34.34    1.55
   1  -4   2   35.92    1.56
  -2   4  -2   38.72    1.68
   2  -4   2   35.03    1.68
   2  -4   2   40.07    1.69
  -3   4  -2    0.13    0.11
   3  -4   2    0.47    0.13
   3  -4   2    0.05    0.09
  -4   4  -2   31.21    1.40
   4  -4   2   30.75    1.41
  -5   4  -2    3.88    0.30
   5  -4   2    4.07    0.32
  -6   4  -2    0.05    0.14
   6  -4   2   -0.04    0.14
  -7   4  -2    4.31    0.36
   7  -4   2    4.63    0.37
  -8   4  -2    1.15    0.23
   8  -4   2    1.12    0.23
  -9   4  -2    0.97    0.22
   9  -4   2    0.58    0.23
 -10   4  -2    5.98    0.49
  10  -4   2    6.48    0.51
 -11   4  -2    0.50    0.27
  11  -4   2    0.27    0.26
 -12   4  -2    2.50    0.37
  12  -4   2    2.52    0.38
 -13   4  -2    0.98    0.34
  13  -4   2    0.86    0.32
 -14  -3   2    0.34    0.27
 -13  -3   2   14.26    0.82
 -12  -3   2   14.72    0.82
 -11  -3   2    7.21    0.50
 -10  -3   2   10.53    0.60
   9   3  -2    3.55    0.28
  -9  -3   2    3.30    0.29
   8   3  -2    0.25    0.11
  -8  -3   2    0.23    0.14
  -8  -3   2    0.13    0.10
   7   3  -2    1.32    0.14
  -7  -3   2    1.02    0.16
  -7  -3   2    1.31    0.15
   6   3  -2   50.24    2.20
  -6  -3   2   52.63    2.22
  -6  -3   2   47.99    2.21
   5   3  -2   19.36    0.86
  -5  -3   2   20.15    0.87
  -5  -3   2   17.45    0.86
   4   3  -2    2.98    0.18
  -4  -3   2    3.20    0.21
   3   3  -2    2.38    0.15
  -3  -3   2    2.40    0.16
  -3  -3   2    2.64    0.18
   2   3  -2   35.10    1.52
  -2  -3   2   33.60    1.53
  -2  -3   2   36.37    1.54
   1   3  -2   37.53    1.59
  -1  -3   2   33.73    1.60
  -1  -3   2   38.75    1.60
   0   3  -2   20.43    0.91
   0  -3   2   20.43    0.92
  -1   3  -2    6.66    0.34
   1  -3   2    6.28    0.33
   1  -3   2    7.05    0.35
  -2   3  -2    0.75    0.11
   2  -3   2    0.73    0.12
   2  -3   2    0.73    0.10
  -3   3  -2  108.03    4.53
   3  -3   2   98.57    4.53
   3  -3   2  107.42    4.54
  -4   3  -2   69.11    3.04
   4  -3   2   69.98    3.04
  -5   3  -2  189.62    8.15
   5  -3   2  187.71    8.15
  -6   3  -2    0.83    0.16
   6  -3   2    0.66    0.15
  -7   3  -2    4.54    0.33
   7  -3   2    3.34    0.30
  -8   3  -2    2.52    0.26
   8  -3   2    2.00    0.25
  -9   3  -2   36.59    1.69
   9  -3   2   35.66    1.69
 -10   3  -2   13.33    0.75
  10  -3   2   12.67    0.75
 -11   3  -2   17.32    0.96
  11  -3   2   17.74    0.96
 -12   3  -2    0.02    0.26
  12  -3   2   -0.47    0.23
 -13   3  -2    0.14    0.33
  13  -3   2    0.19    0.29
 -14   3  -2    3.51    0.46
  14  -3   2    3.49    0.44
 -14  -2   2   15.90    0.93
 -13  -2   2    0.74    0.26
 -12  -2   2   21.24    1.08
 -11  -2   2   11.70    0.68
  10   2  -2    9.15    0.52
 -10  -2   2    9.22    0.55
   9   2  -2   11.03    0.57
  -9  -2   2   10.72    0.59
   8   2  -2   25.54    1.12
  -8  -2   2   21.30    1.11
  -8  -2   2   25.67    1.13
   7   2  -2   11.09    0.55
  -7  -2   2   10.02    0.54
  -7  -2   2   11.71    0.56
   6   2  -2   35.54    1.56
  -6  -2   2   37.06    1.57
  -6  -2   2   33.05    1.56
   5   2  -2    4.78    0.27
  -5  -2   2    4.89    0.28
  -5  -2   2    4.43    0.27
   4   2  -2    7.99    0.38
  -4  -2   2    7.94    0.39
   3   2  -2   22.23    0.98
  -3  -2   2   21.85    0.98
  -3  -2   2   22.77    0.98
   2   2  -2   26.55    1.18
   2   2  -2   27.44    1.18
  -2  -2   2   28.20    1.19
  -2  -2   2   27.01    1.19
   1   2  -2    0.20    0.04
   1   2  -2    0.24    0.04
  -1  -2   2    0.23    0.06
  -1  -2   2    0.21    0.05
   0   2  -2   78.16    3.32
   0   2  -2   73.88    3.35
   0  -2   2   79.75    3.33
  -1   2  -2  196.76    8.46
   1  -2   2  199.38    8.55
   1  -2   2  192.88    8.52
  -2   2  -2  541.42   22.90
   2  -2   2  511.23   22.88
   2  -2   2  538.96   22.93
  -3   2  -2   94.28    4.03
   3  -2   2   95.05    4.03
   3  -2   2   89.79    4.03
  -4   2  -2  143.62    6.22
   4  -2   2  144.64    6.23
  -5   2  -2   16.00    0.76
   5  -2   2   15.93    0.77
  -6   2  -2   29.56    1.36
   6  -2   2   30.13    1.37
  -7   2  -2   44.20    2.00
   7  -2   2   44.76    2.00
  -8   2  -2    6.12    0.40
   8  -2   2    5.33    0.40
  -9   2  -2   27.42    1.30
   9  -2   2   27.22    1.31
 -10   2  -2    8.20    0.53
  10  -2   2    7.49    0.53
 -11   2  -2    0.60    0.24
  11  -2   2    0.37    0.23
 -12   2  -2    3.87    0.41
  12  -2   2    3.80    0.40
 -13   2  -2    0.93    0.32
  13  -2   2    1.07    0.31
 -14   2  -2   -0.10    0.31
  14  -2   2   -0.10    0.27
 -15  -1   2    8.39    0.68
 -14  -1   2    8.74    0.66
 -13  -1   2    5.96    0.53
 -12  -1   2   13.25    0.76
  11   1  -2    0.29    0.17
 -11  -1   2    0.33    0.20
  10   1  -2    0.28    0.15
 -10  -1   2   -0.01    0.17
   9   1  -2    6.92    0.42
  -9  -1   2    7.38    0.46
   8   1  -2   75.69    3.35
  -8  -1   2   77.52    3.36
   7   1  -2   38.39    1.65
  -7  -1   2   34.69    1.65
  -7  -1   2   37.68    1.66
   6   1  -2  137.57    5.86
  -6  -1   2  141.50    5.86
  -6  -1   2  127.61    5.85
   5   1  -2  113.95    4.77
  -5  -1   2  103.82    4.77
  -5  -1   2  113.28    4.77
   4   1  -2    0.98    0.10
  -4  -1   2    0.97    0.11
  -4  -1   2    0.77    0.10
   3   1  -2   20.27    0.91
  -3  -1   2   21.05    0.91
   2   1  -2  346.43   15.20
   2   1  -2  357.24   15.21
  -2  -1   2  358.79   15.22
  -2  -1   2  353.33   15.23
   0   1  -2  135.48    5.97
   0   1  -2  139.58    5.97
   0  -1   2  140.39    5.99
   0  -1   2  139.08    5.98
  -1   1  -2  147.26    6.41
  -1   1  -2  143.71    6.37
   1  -1   2  147.41    6.40
   1  -1   2  152.42    6.39
  -2   1  -2  393.46   16.61
  -2   1  -2  369.35   16.57
   2  -1   2  397.39   16.63
   2  -1   2  377.65   16.58
   3  -1   2    1.04    0.12
   3  -1   2    1.00    0.13
  -4   1  -2    0.23    0.11
   4  -1   2    0.33    0.12
   5  -1   2    2.16    0.19
   6  -1   2   13.57    0.68
   7  -1   2   47.46    2.12
  -8   1  -2   81.24    3.60
   8  -1   2   82.59    3.61
  -9   1  -2    0.28    0.18
   9  -1   2    0.60    0.18
 -10   1  -2   33.15    1.55
  10  -1   2   32.66    1.55
 -11   1  -2   12.89    0.73
  11  -1   2   11.90    0.72
 -12   1  -2   15.55    0.86
  12  -1   2   13.90    0.84
 -13   1  -2    1.03    0.30
  13  -1   2    0.73    0.27
 -14   1  -2   26.38    1.32
  14  -1   2   23.26    1.29
 -15   1  -2    5.98    0.56
 -15   0   2    4.68    0.51
 -14   0   2    1.06    0.32
 -13   0   2    2.00    0.33
  12   0  -2    1.08    0.24
 -12   0   2    1.46    0.28
  11   0  -2    0.50    0.20
 -11   0   2    0.76    0.22
  10   0  -2    6.46    0.43
 -10   0   2    6.29    0.45
   9   0  -2   70.63    3.12
  -9   0   2   70.45    3.12
   8   0  -2    0.20    0.14
  -8   0   2    0.22    0.14
   7   0  -2  209.70    9.11
  -7   0   2  212.83    9.12
   6   0  -2   23.66    1.04
  -6   0   2   23.38    1.04
  -6   0   2   20.81    1.03
   5   0  -2   22.59    0.99
  -5   0   2   22.26    0.99
  -5   0   2   20.39    0.99
   4   0  -2   48.02    2.07
  -4   0   2   47.60    2.07
  -4   0   2   45.57    2.07
   3   0  -2  285.70   11.98
  -3   0   2  275.10   11.98
  -3   0   2  269.77   11.96
   2   0  -2    8.47    0.38
   2   0  -2    7.61    0.37
  -2   0   2    8.48    0.38
  -2   0   2    7.95    0.37
   1   0  -2  149.18    6.40
   1   0  -2  148.38    6.39
  -1   0   2  147.17    6.40
   0   0  -2  249.48   10.72
   0   0  -2  242.69   10.72
   0   0   2  254.64   10.73
  -1   0  -2  216.86    9.50
  -1   0  -2  215.09    9.49
   1   0   2  221.49    9.49
   1   0   2  224.74    9.51
  -2   0  -2  125.85    5.51
  -2   0  -2  125.07    5.52
   2   0   2  132.29    5.54
   2   0   2  124.11    5.52
  -3   0  -2    2.10    0.18
  -3   0  -2    2.09    0.17
   3   0   2    2.10    0.16
   3   0   2    1.99    0.18
  -5   0  -2   32.51    1.50
   5   0   2   34.35    1.50
  -6   0  -2    7.19    0.41
   6   0   2    7.29    0.41
  -7   0  -2   14.23    0.72
   7   0   2   14.71    0.72
  -8   0  -2   46.64    2.10
   8   0   2   46.58    2.10
  -9   0  -2   68.79    3.01
   9   0   2   66.66    3.01
 -10   0  -2    0.70    0.22
  10   0   2    0.85    0.22
 -11   0  -2    7.73    0.54
  11   0   2    7.52    0.53
 -12   0  -2   42.87    1.99
  12   0   2   41.92    1.98
 -13   0  -2    0.68    0.29
  13   0   2    0.37    0.25
 -14   0  -2   26.47    1.38
 -15   0  -2   20.53    1.17
 -15   1   2    7.88    0.69
 -14   1   2    7.68    0.67
  13  -1  -2    6.09    0.53
 -13   1   2    6.63    0.55
  12  -1  -2   11.70    0.72
 -12   1   2   13.16    0.76
  11  -1  -2    0.23    0.21
 -11   1   2    0.05    0.20
  10  -1  -2    0.02    0.17
 -10   1   2    0.06    0.19
   9  -1  -2    6.83    0.44
  -9   1   2    6.43    0.45
   8  -1  -2   80.64    3.51
  -8   1   2   79.31    3.52
   7  -1  -2   40.59    1.78
  -7   1   2   38.56    1.78
   6  -1  -2  138.40    6.02
  -6   1   2  140.05    6.03
   5  -1  -2  113.19    4.75
  -5   1   2  103.01    4.75
  -5   1   2  113.08    4.76
   4  -1  -2    1.16    0.14
  -4   1   2    0.81    0.12
  -4   1   2    0.92    0.13
   3  -1  -2   20.96    0.92
  -3   1   2   19.97    0.92
  -3   1   2   20.50    0.92
   2  -1  -2  343.87   15.00
   2  -1  -2  355.66   15.02
  -2   1   2  356.38   15.03
  -2   1   2  333.49   14.99
   1  -1  -2    4.45    0.24
   1  -1  -2    4.85    0.24
  -1   1   2    4.49    0.24
  -1   1   2    4.62    0.24
   0  -1  -2  140.92    5.86
   0  -1  -2  131.12    5.83
   0   1   2  132.56    5.87
   0   1   2  133.36    5.89
   0   1   2  137.09    5.90
  -1  -1  -2  149.19    6.22
  -1  -1  -2  143.30    6.19
   1   1   2  143.08    6.17
   1   1   2  132.16    6.16
  -2  -1  -2  369.97   16.64
  -2  -1  -2  406.58   16.70
   2   1   2  356.96   16.62
   2   1   2  409.79   16.72
  -3  -1  -2    0.82    0.11
  -3  -1  -2    0.83    0.10
   3   1   2    1.07    0.12
  -4  -1  -2    0.22    0.10
  -4  -1  -2    0.26    0.11
   4   1   2    0.22    0.11
  -5  -1  -2    2.64    0.22
   5   1   2    2.37    0.22
  -6  -1  -2   12.87    0.65
   6   1   2   13.35    0.65
  -7  -1  -2   48.16    2.16
   7   1   2   48.97    2.16
  -8  -1  -2   77.36    3.46
   8   1   2   80.13    3.47
  -9  -1  -2    0.31    0.16
   9   1   2    0.41    0.16
 -10  -1  -2   29.72    1.42
  10   1   2   30.22    1.42
 -11  -1  -2   12.39    0.71
  11   1   2   12.20    0.71
 -12  -1  -2   14.46    0.83
  12   1   2   14.86    0.83
 -13  -1  -2    0.81    0.28
  13   1   2    1.40    0.28
 -14  -1  -2   26.14    1.36
 -15  -1  -2    5.44    0.54
 -14   2   2   16.79    0.99
  13  -2  -2    1.21    0.30
 -13   2   2    0.87    0.31
  12  -2  -2   21.80    1.15
 -12   2   2   23.27    1.17
  11  -2  -2   11.92    0.73
 -11   2   2   13.16    0.74
  10  -2  -2   10.19    0.61
 -10   2   2   10.25    0.62
   9  -2  -2   12.14    0.67
  -9   2   2   12.82    0.69
   8  -2  -2   26.44    1.26
  -8   2   2   27.09    1.26
   7  -2  -2   12.34    0.64
  -7   2   2   12.34    0.65
   6  -2  -2   38.14    1.72
  -6   2   2   38.20    1.72
   5  -2  -2    4.98    0.32
  -5   2   2    4.77    0.32
   4  -2  -2    8.10    0.44
  -4   2   2    8.46    0.44
   3  -2  -2   22.24    1.02
  -3   2   2   22.53    1.02
   2  -2  -2   28.45    1.21
   2  -2  -2   25.82    1.21
  -2   2   2   28.73    1.21
  -2   2   2   25.80    1.21
   1  -2  -2    0.26    0.09
   1  -2  -2    0.25    0.09
  -1   2   2    0.28    0.10
  -1   2   2    0.20    0.09
   0  -2  -2   76.83    3.20
   0  -2  -2   73.02    3.19
   0   2   2   77.51    3.19
   0   2   2   70.99    3.19
   0   2   2   70.46    3.19
  -1  -2  -2  186.17    8.22
  -1  -2  -2  189.64    8.25
   1   2   2  191.63    8.29
  -2  -2  -2  534.03   22.08
  -2  -2  -2  488.81   21.99
   2   2   2  505.17   22.01
  -3  -2  -2   91.70    3.81
  -3  -2  -2   84.86    3.81
   3   2   2   87.34    3.81
  -4  -2  -2  122.61    5.63
  -4  -2  -2  133.60    5.63
   4   2   2  134.77    5.63
  -5  -2  -2   16.59    0.77
   5   2   2   15.96    0.77
  -6  -2  -2   29.33    1.35
   6   2   2   29.83    1.34
  -7  -2  -2   41.06    1.89
   7   2   2   43.30    1.90
  -8  -2  -2    5.79    0.40
   8   2   2    6.31    0.40
  -9  -2  -2   26.77    1.25
   9   2   2   25.70    1.24
 -10  -2  -2    7.83    0.52
  10   2   2    7.90    0.51
 -11  -2  -2    0.12    0.20
  11   2   2    0.00    0.18
 -12  -2  -2    3.56    0.36
  12   2   2    2.83    0.33
 -13  -2  -2    0.75    0.27
 -14  -2  -2    0.13    0.29
 -14   3   2    0.70    0.35
  13  -3  -2   15.75    0.94
 -13   3   2   16.99    0.96
  12  -3  -2   15.22    0.89
 -12   3   2   16.32    0.92
  11  -3  -2    7.31    0.56
 -11   3   2    8.42    0.59
  10  -3  -2   11.83    0.70
 -10   3   2   11.77    0.71
   9  -3  -2    4.47    0.40
  -9   3   2    4.48    0.40
   8  -3  -2    0.18    0.17
  -8   3   2    0.11    0.19
   7  -3  -2    1.30    0.20
  -7   3   2    1.67    0.22
   6  -3  -2   54.74    2.42
  -6   3   2   54.15    2.42
   5  -3  -2   20.61    0.96
  -5   3   2   20.02    0.96
   4  -3  -2    3.28    0.27
  -4   3   2    3.43    0.27
   3  -3  -2    2.16    0.19
  -3   3   2    2.74    0.23
   2  -3  -2   36.56    1.65
  -2   3   2   37.51    1.64
   1  -3  -2   35.04    1.63
   1  -3  -2   38.74    1.64
  -1   3   2   37.24    1.64
   0  -3  -2   20.32    0.91
   0  -3  -2   19.02    0.90
   0   3   2   19.64    0.90
  -1  -3  -2    6.43    0.36
  -1  -3  -2    6.95    0.37
  -1  -3  -2    6.40    0.35
   1   3   2    6.83    0.36
  -2  -3  -2    0.61    0.13
  -2  -3  -2    0.81    0.12
   2   3   2    0.67    0.12
  -3  -3  -2   96.04    4.39
  -3  -3  -2  102.46    4.39
   3   3   2  104.97    4.39
  -4  -3  -2   61.55    2.92
  -4  -3  -2   69.01    2.93
   4   3   2   69.76    2.92
  -5  -3  -2  166.46    7.59
  -5  -3  -2  178.83    7.58
   5   3   2  181.07    7.58
  -6  -3  -2    0.58    0.14
   6   3   2    0.65    0.14
  -7  -3  -2    3.74    0.31
   7   3   2    3.22    0.28
  -8  -3  -2    2.64    0.27
   8   3   2    2.44    0.24
  -9  -3  -2   34.11    1.56
   9   3   2   32.56    1.54
 -10  -3  -2   12.07    0.70
  10   3   2   12.56    0.68
 -11  -3  -2   15.38    0.85
  11   3   2   15.57    0.83
 -12  -3  -2    0.01    0.23
 -13  -3  -2    0.48    0.28
 -14  -3  -2    3.23    0.42
  14  -4  -2   -0.03    0.32
 -14   4   2   -0.12    0.33
  13  -4  -2    2.95    0.41
 -13   4   2    3.05    0.43
  12  -4  -2    0.64    0.28
 -12   4   2    0.84    0.33
  11  -4  -2    0.23    0.25
 -11   4   2    0.39    0.27
  10  -4  -2    3.13    0.34
 -10   4   2    3.24    0.36
   9  -4  -2   16.26    0.87
  -9   4   2   15.95    0.86
   8  -4  -2    2.54    0.31
  -8   4   2    2.56    0.30
   7  -4  -2    0.53    0.18
  -7   4   2    0.58    0.19
   6  -4  -2    0.66    0.19
  -6   4   2    1.15    0.19
   5  -4  -2    1.82    0.21
  -5   4   2    2.35    0.24
   4  -4  -2    3.73    0.30
  -4   4   2    3.83    0.30
   3  -4  -2    4.20    0.30
  -3   4   2    4.01    0.29
   2  -4  -2   18.95    0.90
  -2   4   2   19.24    0.89
   1  -4  -2   29.75    1.35
  -1   4   2   29.86    1.35
   0  -4  -2    0.97    0.14
   0  -4  -2    0.93    0.15
   0   4   2    0.71    0.12
  -1  -4  -2   34.78    1.50
  -1  -4  -2   31.32    1.49
   1   4   2   33.86    1.49
  -2  -4  -2   32.58    1.60
  -2  -4  -2   37.61    1.62
  -2  -4  -2   37.15    1.62
   2   4   2   36.55    1.60
  -3  -4  -2    0.30    0.11
  -3  -4  -2    0.10    0.13
   3   4   2    0.10    0.11
  -4  -4  -2   25.59    1.31
  -4  -4  -2   30.35    1.33
   4   4   2   30.89    1.31
  -5  -4  -2    3.73    0.29
   5   4   2    4.05    0.28
  -6  -4  -2    0.02    0.12
   6   4   2    0.14    0.12
  -7  -4  -2    4.29    0.35
   7   4   2    4.84    0.34
  -8  -4  -2    0.90    0.20
   8   4   2    0.82    0.17
  -9  -4  -2    0.75    0.21
   9   4   2    0.63    0.17
 -10  -4  -2    5.75    0.47
  10   4   2    6.13    0.43
 -11  -4  -2    0.20    0.22
 -12  -4  -2    1.81    0.31
 -13  -4  -2    0.44    0.30
  13  -5  -2    7.11    0.62
 -13   5   2    7.22    0.62
  12  -5  -2    4.64    0.48
 -12   5   2    5.27    0.51
  11  -5  -2    3.57    0.41
 -11   5   2    3.82    0.43
  10  -5  -2    5.62    0.49
 -10   5   2    5.78    0.48
   9  -5  -2    1.55    0.29
  -9   5   2    1.18    0.29
   8  -5  -2    4.87    0.42
  -8   5   2    4.23    0.38
   7  -5  -2   10.62    0.62
  -7   5   2   10.18    0.62
   6  -5  -2    6.76    0.46
  -6   5   2    6.22    0.46
   5  -5  -2    7.22    0.46
  -5   5   2    6.83    0.45
   4  -5  -2    3.16    0.28
  -4   5   2    2.68    0.26
   3  -5  -2    0.21    0.14
  -3   5   2    0.15    0.14
   2  -5  -2    6.56    0.40
  -2   5   2    5.98    0.38
   1  -5  -2    4.75    0.34
  -1   5   2    5.23    0.33
   0  -5  -2    0.38    0.15
   0   5   2    0.53    0.13
  -1  -5  -2    8.41    0.48
   1   5   2    8.51    0.46
  -2  -5  -2   11.30    0.59
   2   5   2   11.05    0.56
  -3  -5  -2   21.69    1.02
  -3  -5  -2   20.89    1.02
   3   5   2   21.72    1.00
  -4  -5  -2    3.60    0.31
   4   5   2    3.95    0.28
  -5  -5  -2   12.41    0.64
   5   5   2   11.03    0.59
  -6  -5  -2   80.49    3.55
   6   5   2   80.11    3.52
  -7  -5  -2    2.34    0.25
   7   5   2    2.59    0.25
  -8  -5  -2    6.11    0.44
   8   5   2    5.76    0.40
  -9  -5  -2    3.56    0.35
 -10  -5  -2    0.54    0.23
 -11  -5  -2    7.28    0.57
 -12  -5  -2    0.14    0.26
 -13  -5  -2    0.96    0.33
  12  -6  -2   18.52    1.11
 -12   6   2   20.18    1.11
  11  -6  -2    7.00    0.59
 -11   6   2    7.43    0.64
  10  -6  -2    7.07    0.59
 -10   6   2    7.01    0.59
   9  -6  -2   14.52    0.86
  -9   6   2   14.69    0.85
   8  -6  -2    5.48    0.50
  -8   6   2    6.01    0.50
   7  -6  -2    3.03    0.34
  -7   6   2    3.05    0.33
   6  -6  -2   54.13    2.40
  -6   6   2   51.33    2.39
   5  -6  -2    1.81    0.27
  -5   6   2    1.81    0.25
   4  -6  -2   33.47    1.52
  -4   6   2   31.25    1.50
   3  -6  -2    1.17    0.20
  -3   6   2    1.56    0.21
   2  -6  -2   17.77    0.88
  -2   6   2   17.17    0.86
   1  -6  -2    0.32    0.16
  -1   6   2    0.26    0.14
   0  -6  -2    4.89    0.35
   0   6   2    4.44    0.33
  -1  -6  -2   38.17    1.72
   1   6   2   36.85    1.69
  -2  -6  -2   25.75    1.18
   2   6   2   23.78    1.15
  -3  -6  -2   16.15    0.79
   3   6   2   14.66    0.75
  -4  -6  -2  109.70    4.76
  -4  -6  -2  110.63    4.76
   4   6   2  105.67    4.73
  -5  -6  -2    6.52    0.47
   5   6   2    6.31    0.40
  -6  -6  -2    2.34    0.28
   6   6   2    2.18    0.23
  -7  -6  -2   12.74    0.70
   7   6   2   11.49    0.64
  -8  -6  -2    0.73    0.23
  -9  -6  -2    1.93    0.30
 -10  -6  -2   14.55    0.85
 -11  -6  -2    1.38    0.29
 -12  -6  -2    3.54    0.40
  11  -7  -2    6.17    0.57
 -11   7   2    7.43    0.61
  10  -7  -2    1.27    0.34
 -10   7   2    1.26    0.33
   9  -7  -2    6.76    0.58
  -9   7   2    6.35    0.54
   8  -7  -2    5.89    0.51
  -8   7   2    5.55    0.48
   7  -7  -2   14.25    0.82
  -7   7   2   13.23    0.80
   6  -7  -2    0.84    0.26
  -6   7   2    1.05    0.26
   5  -7  -2   56.04    2.48
  -5   7   2   52.26    2.45
   4  -7  -2   11.39    0.66
  -4   7   2   10.48    0.62
   3  -7  -2  102.71    4.49
  -3   7   2  100.97    4.47
   2  -7  -2   24.76    1.17
  -2   7   2   23.16    1.14
   1  -7  -2   21.48    1.03
  -1   7   2   19.76    0.99
   0  -7  -2    3.96    0.34
   0   7   2    3.52    0.30
  -1  -7  -2    5.89    0.43
   1   7   2    6.07    0.40
  -2  -7  -2    4.68    0.38
   2   7   2    3.77    0.32
  -3  -7  -2   53.30    2.32
   3   7   2   49.15    2.29
  -4  -7  -2    6.04    0.44
   4   7   2    5.10    0.37
  -5  -7  -2   51.20    2.30
  -5  -7  -2   49.54    2.30
  -6  -7  -2    1.86    0.28
  -6  -7  -2    1.97    0.28
  -7  -7  -2   10.64    0.68
  -8  -7  -2    0.81    0.26
  -9  -7  -2    0.43    0.27
 -10  -7  -2    1.68    0.35
 -11  -7  -2   11.13    0.78
   9  -8  -2    5.13    0.53
  -9   8   2    4.82    0.50
   8  -8  -2    0.21    0.29
  -8   8   2    0.12    0.27
   7  -8  -2    7.87    0.62
  -7   8   2    7.76    0.60
   6  -8  -2   11.33    0.72
  -6   8   2   10.90    0.69
   5  -8  -2   13.12    0.78
  -5   8   2   12.18    0.74
   4  -8  -2   27.54    1.36
  -4   8   2   27.26    1.33
   3  -8  -2   25.47    1.27
  -3   8   2   25.60    1.24
   2  -8  -2   18.85    0.99
  -2   8   2   18.68    0.95
   1  -8  -2   10.72    0.65
  -1   8   2   10.68    0.62
   0  -8  -2    3.45    0.35
   0   8   2    3.21    0.30
  -1  -8  -2    7.27    0.51
   1   8   2    7.13    0.46
  -2  -8  -2   16.10    0.86
  -3  -8  -2    0.06    0.21
  -4  -8  -2    9.46    0.61
  -5  -8  -2    0.68    0.25
  -6  -8  -2    3.15    0.36
  -7  -8  -2    0.79    0.27
  -7  -8  -2    0.64    0.26
  -8  -8  -2   13.89    0.87
  -8  -8  -2   15.32    0.87
  -9  -8  -2    3.88    0.43
  -9  -8  -2    3.63    0.43
   7  -9  -2    0.45    0.31
   6  -9  -2    6.66    0.59
   5  -9  -2    3.25    0.40
   4  -9  -2    1.04    0.28
   3  -9  -2    4.29    0.43
   2  -9  -2    7.72    0.58
   1  -9  -2    1.74    0.30
   0  -9  -2    7.93    0.58
  -1  -9  -2    0.50    0.25
  -2  -9  -2    4.51    0.42
  -3  -9  -2    6.01    0.52
  -4  -9  -2   -0.25    0.23
  -5  -9  -2    3.86    0.40
  -6  -9  -2    6.01    0.51
  -7  -9  -2    0.44    0.28
   4 -10  -2    0.32    0.29
   3 -10  -2    4.74    0.48
   2 -10  -2    1.87    0.35
   1 -10  -2    4.44    0.45
   0 -10  -2    0.05    0.27
  -1 -10  -2   13.99    0.85
  -2 -10  -2   -0.13    0.25
  -3 -10  -2    1.09    0.30
  -4 -10  -2    0.78    0.30
  -4 -10   3    4.22    0.40
  -3 -10   3    0.12    0.22
  -2 -10   3    1.44    0.28
  -1 -10   3   10.20    0.66
   0 -10   3    1.58    0.29
   1 -10   3    4.17    0.41
   2 -10   3    0.34    0.25
   3 -10   3    4.10    0.43
   4 -10   3    1.29    0.31
  -7  -9   3    1.90    0.30
  -6  -9   3   11.52    0.69
  -5  -9   3    0.34    0.22
  -4  -9   3    0.06    0.19
  -3  -9   3    0.20    0.19
  -2  -9   3   22.73    1.12
  -1  -9   3    7.27    0.51
   0  -9   3    3.92    0.35
   1  -9   3    2.17    0.29
   2  -9   3    0.49    0.22
   3  -9   3    1.12    0.27
   4  -9   3    0.30    0.23
   5  -9   3    0.29    0.27
   6  -9   3    0.87    0.30
   7  -9   3    6.28    0.56
  -9  -8   3   12.50    0.76
  -9  -8   3   13.17    0.77
  -8  -8   3    0.42    0.23
  -8  -8   3    0.05    0.22
  -7  -8   3    1.59    0.26
  -6  -8   3    2.77    0.30
  -5  -8   3    0.79    0.21
  -4  -8   3    0.79    0.20
  -3  -8   3    0.36    0.17
  -2  -8   3    1.33    0.21
  -1  -8   3    0.44    0.17
   0  -8   3    0.86    0.20
   1  -8   3    0.50    0.19
   2  -8   3   15.96    0.84
   3  -8   3    0.23    0.21
   4  -8   3    2.60    0.32
   5  -8   3    1.58    0.27
   6  -8   3    1.61    0.30
   7  -8   3    6.47    0.57
   8  -8   3    1.14    0.31
   9  -8   3    0.81    0.32
 -11  -7   3    0.25    0.25
 -10  -7   3    0.98    0.27
  -9  -7   3    2.42    0.31
  -8  -7   3    1.43    0.25
  -7  -7   3    1.19    0.23
  -6  -7   3    6.91    0.46
  -6  -7   3    7.05    0.46
  -5  -7   3    5.37    0.39
  -4  -7   3    2.11    0.23
  -3  -7   3   20.95    1.00
  -2  -7   3    0.28    0.14
  -1  -7   3    3.65    0.30
   0   7  -3    0.38    0.11
   0  -7   3    0.11    0.14
  -1   7  -3    2.88    0.25
   1  -7   3    3.40    0.30
  -2   7  -3    0.25    0.14
   2  -7   3    0.48    0.17
  -3   7  -3    1.69    0.20
   3  -7   3    1.66    0.24
  -4   7  -3    0.12    0.15
   4  -7   3   -0.07    0.17
  -5   7  -3   -0.03    0.16
   5  -7   3   -0.17    0.19
  -6   7  -3    6.17    0.45
   6  -7   3    5.73    0.48
  -7   7  -3    8.17    0.56
   7  -7   3    9.20    0.62
   8  -7   3    4.95    0.45
   9  -7   3    0.47    0.27
  10  -7   3    5.95    0.55
  11  -7   3    1.64    0.39
 -12  -6   3   -0.04    0.24
 -11  -6   3    1.54    0.28
 -10  -6   3    1.98    0.27
  -9  -6   3    1.85    0.24
  -8  -6   3    4.10    0.37
  -7  -6   3   39.27    1.79
  -6  -6   3    1.86    0.22
  -5  -6   3   28.17    1.30
  -4  -6   3    2.25    0.22
   3   6  -3    0.70    0.10
  -3  -6   3    0.89    0.15
   2   6  -3    9.82    0.48
  -2  -6   3   10.33    0.53
   1   6  -3   17.73    0.79
  -1  -6   3   16.13    0.81
  -1  -6   3   17.77    0.82
   0   6  -3   18.58    0.83
   0  -6   3   18.18    0.86
   0  -6   3   17.13    0.84
  -1   6  -3    0.30    0.11
   1  -6   3    0.26    0.10
   1  -6   3    0.17    0.12
  -2   6  -3    1.59    0.17
   2  -6   3    1.17    0.16
   2  -6   3    1.53    0.19
  -3   6  -3    2.64    0.23
   3  -6   3    3.09    0.27
  -4   6  -3    0.28    0.14
   4  -6   3    0.21    0.16
  -5   6  -3    1.42    0.20
   5  -6   3    1.34    0.23
  -6   6  -3    7.79    0.49
   6  -6   3    7.64    0.52
  -7   6  -3    0.09    0.18
   7  -6   3   -0.15    0.19
  -8   6  -3   15.46    0.85
   8  -6   3   16.22    0.89
  -9   6  -3    6.42    0.52
   9  -6   3    7.33    0.57
 -10   6  -3    9.33    0.64
  10  -6   3    8.57    0.66
 -11   6  -3    2.20    0.37
  11  -6   3    2.56    0.41
 -12   6  -3    3.77    0.46
  12  -6   3    4.19    0.48
 -13  -5   3    1.05    0.29
 -12  -5   3    0.36    0.24
 -11  -5   3    1.04    0.24
 -10  -5   3   21.66    1.07
  -9  -5   3    3.34    0.30
  -8  -5   3   26.59    1.25
  -7  -5   3   10.59    0.56
  -5  -5   3    1.07    0.15
  -5  -5   3    1.02    0.12
   4   5  -3    1.22    0.11
  -4  -5   3    1.44    0.16
  -4  -5   3    1.24    0.14
   3   5  -3   13.22    0.60
  -3  -5   3   12.29    0.62
  -3  -5   3   13.90    0.64
   2   5  -3   14.79    0.69
  -2  -5   3   16.64    0.73
  -2  -5   3   14.73    0.71
   1   5  -3   48.71    2.17
  -1  -5   3   51.25    2.20
   0   5  -3   65.81    2.85
   0  -5   3   63.75    2.86
   0  -5   3   67.05    2.87
  -1   5  -3   64.76    2.76
   1  -5   3   64.55    2.78
   1  -5   3   60.75    2.77
  -2   5  -3   61.05    2.65
   2  -5   3   63.82    2.67
   2  -5   3   56.59    2.65
  -3   5  -3    1.96    0.18
   3  -5   3    1.87    0.18
   3  -5   3    1.78    0.20
  -4   5  -3    5.08    0.33
   4  -5   3    5.04    0.36
  -5   5  -3   24.83    1.16
   5  -5   3   24.69    1.18
  -6   5  -3   45.83    2.06
   6  -5   3   45.65    2.08
  -7   5  -3   82.27    3.62
   7  -5   3   81.75    3.64
  -8   5  -3   27.19    1.30
   8  -5   3   26.34    1.31
  -9   5  -3   15.88    0.87
   9  -5   3   16.01    0.89
 -10   5  -3    3.93    0.40
  10  -5   3    3.97    0.40
 -11   5  -3    0.35    0.27
  11  -5   3    0.55    0.28
 -12   5  -3   -0.09    0.30
  12  -5   3    0.39    0.30
 -13   5  -3    1.31    0.39
  13  -5   3    1.16    0.35
 -13  -4   3    8.59    0.61
 -12  -4   3   16.59    0.89
 -11  -4   3    6.10    0.46
 -10  -4   3   23.23    1.13
  -9  -4   3   12.99    0.68
   8   4  -3    5.94    0.33
  -8  -4   3    5.29    0.37
   7   4  -3   35.26    1.50
  -7  -4   3   34.92    1.53
  -7  -4   3   31.36    1.52
   6   4  -3    0.63    0.09
  -6  -4   3    0.47    0.13
   5   4  -3   10.05    0.48
  -5  -4   3   10.20    0.51
  -5  -4   3   10.92    0.52
   4   4  -3    2.53    0.16
  -4  -4   3    2.87    0.20
  -4  -4   3    2.82    0.19
   3   4  -3    2.43    0.15
  -3  -4   3    2.67    0.18
  -3  -4   3    2.74    0.20
   2   4  -3  102.76    4.48
  -2  -4   3  100.76    4.50
  -2  -4   3  109.31    4.51
   1   4  -3   41.17    1.82
  -1  -4   3   43.65    1.84
  -1  -4   3   40.98    1.83
   0   4  -3  163.12    7.12
   0  -4   3  168.34    7.20
  -1   4  -3   93.48    3.96
   1  -4   3   94.88    3.97
   1  -4   3   86.15    3.96
  -2   4  -3    1.18    0.13
   2  -4   3    1.37    0.14
   2  -4   3    1.28    0.15
  -3   4  -3  370.23   15.02
   3  -4   3  357.77   15.19
   3  -4   3  321.32   15.02
  -4   4  -3  236.18   10.16
   4  -4   3  235.39   10.17
  -5   4  -3    0.45    0.13
   5  -4   3    0.17    0.14
  -6   4  -3   76.04    3.36
   6  -4   3   76.71    3.37
  -7   4  -3   34.50    1.57
   7  -4   3   33.62    1.58
  -8   4  -3   27.29    1.33
   8  -4   3   28.90    1.35
  -9   4  -3   23.29    1.17
   9  -4   3   24.09    1.19
 -10   4  -3    2.70    0.32
  10  -4   3    2.69    0.34
 -11   4  -3    7.43    0.58
  11  -4   3    7.77    0.59
 -12   4  -3    1.17    0.34
  12  -4   3    2.00    0.35
 -13   4  -3    4.95    0.51
  13  -4   3    4.76    0.49
 -14  -3   3   20.57    1.11
 -13  -3   3   24.37    1.24
 -12  -3   3    0.64    0.22
 -11  -3   3   15.96    0.84
 -10  -3   3    8.67    0.52
   9   3  -3   12.00    0.60
  -9  -3   3   11.66    0.63
   8   3  -3    0.64    0.12
  -8  -3   3    0.66    0.15
  -8  -3   3    0.53    0.11
   7   3  -3    2.92    0.20
  -7  -3   3    2.78    0.24
  -7  -3   3    2.54    0.21
   6   3  -3   53.23    2.38
  -6  -3   3   55.95    2.40
   5   3  -3   49.68    2.16
  -5  -3   3   52.67    2.18
  -5  -3   3   46.91    2.17
   4   3  -3   63.19    2.76
  -4  -3   3   62.91    2.78
  -4  -3   3   65.85    2.78
   3   3  -3   70.14    3.17
  -3  -3   3   72.40    3.18
  -3  -3   3   78.39    3.18
   2   3  -3    0.75    0.07
  -2  -3   3    0.92    0.09
  -2  -3   3    0.99    0.10
   1   3  -3   84.86    3.72
  -1  -3   3   87.08    3.73
  -1  -3   3   87.63    3.73
   0   3  -3   65.52    2.84
   0  -3   3   67.10    2.84
   0  -3   3   64.60    2.84
  -1   3  -3   20.93    0.91
   1  -3   3   19.50    0.92
   1  -3   3   20.99    0.92
  -2   3  -3   98.46    4.10
   2  -3   3   97.10    4.10
   2  -3   3   88.71    4.10
  -3   3  -3   74.60    3.13
   3  -3   3   68.39    3.13
   3  -3   3   72.54    3.13
  -4   3  -3  172.24    7.30
   4  -3   3  156.47    7.30
   4  -3   3  178.67    7.31
  -5   3  -3   33.68    1.52
   5  -3   3   33.54    1.52
  -6   3  -3    4.24    0.32
   6  -3   3    4.53    0.34
  -7   3  -3   32.85    1.52
   7  -3   3   33.47    1.53
  -8   3  -3   13.23    0.70
   8  -3   3   12.70    0.71
  -9   3  -3    2.41    0.28
   9  -3   3    2.55    0.29
 -10   3  -3    8.93    0.58
  10  -3   3    8.46    0.59
 -11   3  -3    2.37    0.32
  11  -3   3    3.08    0.37
 -12   3  -3   14.21    0.86
  12  -3   3   14.62    0.87
 -13   3  -3    5.17    0.50
  13  -3   3    4.78    0.48
 -14   3  -3    1.02    0.37
  14  -3   3    1.67    0.38
 -14  -2   3    0.74    0.29
 -13  -2   3    0.68    0.26
 -12  -2   3    7.76    0.55
 -11  -2   3    6.50    0.47
  10   2  -3   26.38    1.24
 -10  -2   3   27.10    1.26
   9   2  -3    1.74    0.19
  -9  -2   3    1.15    0.16
  -9  -2   3    1.78    0.21
   8   2  -3    7.10    0.38
  -8  -2   3    6.17    0.38
  -8  -2   3    7.07    0.41
   7   2  -3   71.58    2.97
  -7  -2   3   62.11    2.97
  -7  -2   3   70.63    2.98
   6   2  -3   30.37    1.39
  -6  -2   3   33.38    1.41
  -6  -2   3   30.52    1.40
   5   2  -3   50.32    2.22
  -5  -2   3   51.84    2.23
   4   2  -3  100.45    4.44
  -4  -2   3  100.81    4.45
  -4  -2   3  108.52    4.45
   3   2  -3    0.68    0.05
  -3  -2   3    0.64    0.07
  -3  -2   3    0.65    0.08
  -2  -2   3   71.52    3.13
  -2  -2   3   74.12    3.13
  -1  -2   3    2.12    0.12
  -1  -2   3    2.07    0.12
   0   2  -3    2.81    0.14
   0   2  -3    2.70    0.15
   0  -2   3    2.90    0.15
   0  -2   3    2.76    0.16
  -1   2  -3   47.19    2.01
   1  -2   3   45.85    2.02
  -2   2  -3    1.42    0.12
   2  -2   3    1.35    0.13
   2  -2   3    1.45    0.12
  -3   2  -3  125.24    5.22
   3  -2   3  122.01    5.22
   3  -2   3  115.49    5.22
  -4   2  -3    7.13    0.39
   4  -2   3    6.94    0.38
   4  -2   3    7.70    0.40
  -5   2  -3   13.28    0.66
   5  -2   3   13.80    0.67
  -6   2  -3    7.34    0.42
   6  -2   3    7.59    0.44
  -7   2  -3    6.21    0.41
   7  -2   3    6.62    0.42
  -8   2  -3   12.09    0.64
   8  -2   3   11.58    0.65
  -9   2  -3    3.03    0.29
   9  -2   3    3.35    0.31
 -10   2  -3    0.37    0.21
  10  -2   3    0.22    0.21
 -11   2  -3   27.51    1.34
  11  -2   3   26.33    1.34
 -12   2  -3   11.36    0.73
  12  -2   3   11.42    0.73
 -13   2  -3    7.82    0.64
  13  -2   3    7.32    0.62
 -14   2  -3    5.90    0.53
  14  -2   3    4.99    0.52
 -15  -1   3    0.37    0.30
 -14  -1   3    0.35    0.28
 -13  -1   3    3.36    0.38
 -12  -1   3    0.31    0.23
  11   1  -3    4.33    0.36
 -11  -1   3    4.24    0.37
  10   1  -3    2.00    0.23
 -10  -1   3    1.92    0.25
   9   1  -3   13.69    0.72
  -9  -1   3   15.39    0.74
   8   1  -3    4.77    0.31
  -8  -1   3    4.59    0.32
  -8  -1   3    4.49    0.30
   7   1  -3    0.71    0.12
  -7  -1   3    0.75    0.14
  -7  -1   3    0.59    0.11
   6   1  -3   27.52    1.21
  -6  -1   3   25.43    1.21
  -6  -1   3   27.75    1.21
   5   1  -3  195.41    8.36
  -5  -1   3  198.56    8.37
  -5  -1   3  189.35    8.36
   4   1  -3   40.90    1.74
  -4  -1   3   39.20    1.75
   3   1  -3  165.53    7.11
  -3  -1   3  160.81    7.13
  -3  -1   3  167.82    7.11
  -2  -1   3    1.45    0.10
  -2  -1   3    1.67    0.10
   0   1  -3    0.34    0.03
   0   1  -3    0.31    0.04
   0  -1   3    0.27    0.04
   0  -1   3    0.31    0.04
  -1   1  -3  101.87    4.50
  -1   1  -3  108.67    4.50
   1  -1   3  106.80    4.53
   1  -1   3   98.83    4.52
  -2   1  -3   41.42    1.75
   2  -1   3   40.21    1.75
   2  -1   3   38.54    1.75
  -3   1  -3   96.25    3.97
   3  -1   3   85.86    3.97
   3  -1   3   93.48    3.97
  -4   1  -3   38.87    1.70
   4  -1   3   38.14    1.71
  -5   1  -3    1.22    0.15
   5  -1   3    1.21    0.15
  -6   1  -3   73.76    3.17
   6  -1   3   70.85    3.17
  -7   1  -3    0.50    0.15
   7  -1   3    0.47    0.15
  -8   1  -3    1.25    0.21
   8  -1   3    1.09    0.21
  -9   1  -3    1.18    0.21
   9  -1   3    1.18    0.22
 -10   1  -3   25.61    1.26
  10  -1   3   25.89    1.26
 -11   1  -3    5.61    0.49
  11  -1   3    5.24    0.47
 -12   1  -3   45.01    2.07
  12  -1   3   43.45    2.07
 -13   1  -3    8.60    0.66
  13  -1   3    8.59    0.64
 -14   1  -3    7.77    0.64
  14  -1   3    5.50    0.51
 -15   0   3   -0.41    0.29
 -14   0   3    0.19    0.28
 -13   0   3   -0.10    0.26
  12   0  -3    0.11    0.19
 -12   0   3    0.21    0.21
  11   0  -3    0.10    0.16
 -11   0   3    0.19    0.20
  10   0  -3   -0.16    0.14
 -10   0   3   -0.17    0.17
   9   0  -3    0.12    0.14
  -9   0   3    0.07    0.15
   8   0  -3    0.04    0.13
  -8   0   3    0.01    0.13
   7   0  -3    0.03    0.12
  -7   0   3    0.04    0.12
  -7   0   3   -0.03    0.09
   6   0  -3    0.28    0.11
  -6   0   3   -0.09    0.11
  -6   0   3    0.13    0.09
   5   0  -3    0.13    0.09
  -5   0   3    0.15    0.09
  -5   0   3    0.07    0.09
   4   0  -3    0.15    0.09
  -4   0   3    0.25    0.08
  -4   0   3    0.13    0.09
   3   0  -3    0.00    0.07
  -3   0   3    0.00    0.07
  -3   0   3    0.09    0.08
   2   0  -3    0.04    0.05
   2   0  -3    0.20    0.06
  -2   0   3    0.16    0.06
  -2   0   3   -0.02    0.04
   1   0  -3    0.04    0.05
   1   0  -3    0.10    0.05
  -1   0   3   -0.01    0.01
  -1   0   3    0.03    0.05
   0   0  -3    0.04    0.05
   0   0  -3    0.00    0.05
   0   0  -3    0.02    0.05
   0   0   3    0.07    0.05
   0   0   3    0.01    0.04
  -1   0  -3   -0.11    0.06
  -1   0  -3   -0.07    0.06
   1   0   3   -0.14    0.05
   1   0   3   -0.08    0.06
  -2   0  -3    0.04    0.08
  -2   0  -3   -0.04    0.08
   2   0   3    0.07    0.08
   2   0   3    0.04    0.08
  -3   0  -3    0.11    0.09
   3   0   3    0.01    0.08
   3   0   3   -0.04    0.07
  -4   0  -3    0.11    0.11
   4   0   3    0.11    0.11
  -5   0  -3    0.30    0.12
   5   0   3    0.25    0.11
  -6   0  -3    0.12    0.12
   6   0   3    0.09    0.11
  -7   0  -3    0.22    0.14
   7   0   3    0.14    0.14
  -8   0  -3   -0.07    0.15
   8   0   3    0.06    0.14
  -9   0  -3   -0.09    0.15
   9   0   3    0.08    0.18
 -10   0  -3   -0.05    0.19
  10   0   3    0.45    0.20
 -11   0  -3    0.19    0.21
  11   0   3   -0.20    0.20
 -12   0  -3   -0.03    0.24
  12   0   3   -0.35    0.21
 -13   0  -3   -0.32    0.26
  13   0   3   -0.17    0.23
 -14   0  -3    0.13    0.31
  14   0   3   -0.27    0.26
 -15   0  -3    0.07    0.33
 -15   1   3    0.36    0.35
 -14   1   3    0.04    0.28
 -13   1   3    3.69    0.40
  12  -1  -3   -0.02    0.20
 -12   1   3    0.08    0.23
  11  -1  -3    4.47    0.40
 -11   1   3    4.65    0.40
  10  -1  -3    1.80    0.25
 -10   1   3    1.30    0.24
   9  -1  -3   14.68    0.78
  -9   1   3   16.29    0.80
   8  -1  -3    5.62    0.36
  -8   1   3    4.99    0.38
   7  -1  -3    1.01    0.16
  -7   1   3    0.78    0.17
   6  -1  -3   29.41    1.30
  -6   1   3   28.10    1.31
   5  -1  -3  202.10    8.33
  -5   1   3  201.48    8.33
  -5   1   3  176.51    8.32
   4  -1  -3   40.89    1.73
  -4   1   3   36.11    1.72
  -4   1   3   40.65    1.73
   3  -1  -3  174.17    7.18
  -3   1   3  156.02    7.12
  -3   1   3  166.76    7.17
   2  -1  -3    1.71    0.15
   2  -1  -3    1.18    0.12
  -2   1   3    1.42    0.13
  -2   1   3    1.49    0.13
   1  -1  -3    1.41    0.12
   1  -1  -3    1.68    0.13
  -1   1   3    1.70    0.14
  -1   1   3    1.66    0.14
   0  -1  -3    0.28    0.09
   0  -1  -3    0.37    0.08
   0   1   3    0.24    0.07
   0   1   3    0.37    0.08
   0   1   3    0.40    0.08
  -1  -1  -3  105.51    4.51
  -1  -1  -3   99.74    4.46
   1   1   3  105.95    4.52
   1   1   3  102.90    4.46
  -2  -1  -3   39.47    1.73
  -2  -1  -3   37.39    1.73
   2   1   3   41.49    1.73
   3   1   3   87.30    3.78
  -4  -1  -3   38.55    1.70
   4   1   3   38.07    1.70
  -5  -1  -3    0.82    0.14
   5   1   3    1.19    0.16
  -6  -1  -3   71.70    3.14
   6   1   3   71.21    3.14
  -7  -1  -3    0.34    0.14
   7   1   3    0.27    0.13
  -8  -1  -3    0.84    0.17
   8   1   3    0.75    0.16
  -9  -1  -3    1.01    0.19
   9   1   3    0.91    0.19
 -10  -1  -3   26.42    1.27
  10   1   3   25.90    1.26
 -11  -1  -3    5.07    0.45
  11   1   3    4.88    0.43
 -12  -1  -3   45.56    2.09
  12   1   3   43.65    2.08
 -13  -1  -3    9.04    0.65
  13   1   3    7.72    0.61
 -14  -1  -3    6.49    0.56
 -14   2   3    0.84    0.35
  13  -2  -3    0.70    0.28
 -13   2   3    0.87    0.32
  12  -2  -3    8.83    0.60
 -12   2   3    8.77    0.63
  11  -2  -3    7.35    0.53
 -11   2   3    7.30    0.55
  10  -2  -3   28.79    1.41
 -10   2   3   30.71    1.43
   9  -2  -3    1.70    0.22
  -9   2   3    1.59    0.23
   8  -2  -3    7.46    0.46
  -8   2   3    7.31    0.47
   7  -2  -3   72.87    3.23
  -7   2   3   74.02    3.24
   6  -2  -3   33.70    1.53
  -6   2   3   33.82    1.53
   5  -2  -3   50.89    2.29
  -5   2   3   52.76    2.29
   4  -2  -3  107.13    4.67
  -4   2   3  108.47    4.67
   3  -2  -3    0.73    0.13
  -3   2   3    0.51    0.11
   2  -2  -3   72.51    3.18
  -2   2   3   77.31    3.19
  -2   2   3   70.08    3.18
   1  -2  -3    2.02    0.18
   1  -2  -3    2.06    0.16
  -1   2   3    2.11    0.18
  -1   2   3    2.03    0.18
   0  -2  -3    2.70    0.20
   0  -2  -3    3.15    0.22
   0   2   3    2.90    0.21
   0   2   3    2.72    0.20
   0   2   3    3.15    0.22
  -1  -2  -3   42.12    1.95
  -1  -2  -3   45.00    1.95
   1   2   3   46.41    1.95
  -2  -2  -3    1.17    0.13
  -2  -2  -3    1.28    0.14
   2   2   3    1.42    0.14
  -3  -2  -3  108.61    5.12
  -3  -2  -3  119.33    5.13
   3   2   3  127.76    5.13
  -4  -2  -3    6.97    0.39
   4   2   3    7.39    0.40
  -5  -2  -3   12.08    0.62
   5   2   3   12.92    0.63
  -6  -2  -3    7.14    0.43
   6   2   3    7.63    0.43
  -7  -2  -3    6.10    0.39
   7   2   3    5.90    0.38
  -8  -2  -3   10.65    0.61
   8   2   3   11.70    0.61
  -9  -2  -3    3.94    0.36
   9   2   3    3.98    0.35
 -10  -2  -3    0.11    0.19
  10   2   3   -0.01    0.17
 -11  -2  -3   26.49    1.27
  11   2   3   25.02    1.26
 -12  -2  -3   11.27    0.69
  12   2   3   10.14    0.66
 -13  -2  -3    7.16    0.60
 -14  -2  -3    4.76    0.49
 -14   3   3   21.37    1.20
  13  -3  -3   26.45    1.39
 -13   3   3   28.61    1.42
  12  -3  -3    1.04    0.29
 -12   3   3    1.72    0.34
  11  -3  -3   18.49    0.99
 -11   3   3   18.80    1.00
  10  -3  -3    9.51    0.60
 -10   3   3    9.51    0.62
   9  -3  -3   13.26    0.75
  -9   3   3   14.93    0.77
   8  -3  -3    0.69    0.19
  -8   3   3    0.94    0.21
   7  -3  -3    2.70    0.26
  -7   3   3    2.87    0.27
   6  -3  -3   57.32    2.57
  -6   3   3   58.38    2.57
   5  -3  -3   55.02    2.46
  -5   3   3   56.20    2.47
   4  -3  -3   68.78    3.01
  -4   3   3   68.47    3.01
   3  -3  -3   80.36    3.48
  -3   3   3   78.99    3.47
   2  -3  -3    0.92    0.14
  -2   3   3    0.90    0.13
   1  -3  -3   92.37    4.00
  -1   3   3   91.62    3.99
   0  -3  -3   66.05    2.90
   0   3   3   66.85    2.90
  -1  -3  -3   18.19    0.88
  -1  -3  -3   18.96    0.90
   1   3   3   20.59    0.89
  -2  -3  -3   96.33    4.07
  -2  -3  -3   86.03    4.05
   2   3   3   98.24    4.06
  -3  -3  -3   70.89    3.20
   3   3   3   75.69    3.20
  -4  -3  -3  180.17    7.72
   4   3   3  177.20    7.71
  -5  -3  -3   33.70    1.54
   5   3   3   34.07    1.53
  -6  -3  -3    4.20    0.32
   6   3   3    4.12    0.30
  -7  -3  -3   32.67    1.48
   7   3   3   31.45    1.47
  -8  -3  -3   12.95    0.68
   8   3   3   12.24    0.66
  -9  -3  -3    2.08    0.26
   9   3   3    2.78    0.27
 -10  -3  -3    8.53    0.55
  10   3   3    8.09    0.53
 -11  -3  -3    3.32    0.37
  11   3   3    3.80    0.36
 -12  -3  -3   14.14    0.83
 -13  -3  -3    5.11    0.50
 -14  -3  -3    1.56    0.37
  13  -4  -3    8.56    0.69
 -13   4   3   10.55    0.76
  12  -4  -3   18.52    1.01
 -12   4   3   17.58    1.02
  11  -4  -3    6.24    0.53
 -11   4   3    6.48    0.57
  10  -4  -3   24.21    1.26
 -10   4   3   26.65    1.28
   9  -4  -3   14.23    0.78
  -9   4   3   13.67    0.78
   8  -4  -3    6.19    0.46
  -8   4   3    5.86    0.45
   7  -4  -3   38.99    1.77
  -7   4   3   37.92    1.77
   6  -4  -3    0.74    0.19
  -6   4   3    0.43    0.18
   5  -4  -3   11.76    0.63
  -5   4   3   11.78    0.62
   4  -4  -3    3.23    0.28
  -4   4   3    2.56    0.24
   3  -4  -3    2.69    0.24
  -3   4   3    2.85    0.25
   2  -4  -3  107.96    4.74
  -2   4   3  109.95    4.73
   1  -4  -3   43.59    1.94
  -1   4   3   43.60    1.94
   0  -4  -3  170.35    7.23
   0   4   3  164.16    7.22
  -1  -4  -3   93.92    4.11
   1   4   3   94.73    4.10
  -2  -4  -3    0.96    0.16
  -2  -4  -3    1.11    0.16
   2   4   3    1.17    0.15
  -3  -4  -3  356.48   15.32
   3   4   3  351.51   15.28
  -4  -4  -3  235.19   10.13
   4   4   3  234.04   10.11
  -5  -4  -3    0.25    0.15
   5   4   3    0.23    0.13
  -6  -4  -3   78.47    3.45
   6   4   3   77.77    3.43
  -7  -4  -3   32.93    1.53
   7   4   3   32.86    1.51
  -8  -4  -3   27.08    1.28
   8   4   3   26.43    1.26
  -9  -4  -3   22.39    1.09
   9   4   3   21.23    1.06
 -10  -4  -3    2.38    0.30
  10   4   3    2.82    0.29
 -11  -4  -3    6.98    0.54
 -12  -4  -3    1.08    0.29
 -13  -4  -3    3.96    0.45
  13  -5  -3    2.27    0.40
 -13   5   3    1.54    0.40
  12  -5  -3   -0.48    0.27
 -12   5   3   -0.24    0.29
  11  -5  -3    2.09    0.36
 -11   5   3    1.46    0.33
  10  -5  -3   27.12    1.35
 -10   5   3   26.20    1.35
   9  -5  -3    3.22    0.35
  -9   5   3    3.56    0.36
   8  -5  -3   30.13    1.43
  -8   5   3   29.08    1.43
   7  -5  -3   11.44    0.68
  -7   5   3   11.83    0.67
   6  -5  -3   75.05    3.34
  -6   5   3   75.09    3.33
   5  -5  -3    1.29    0.22
  -5   5   3    1.19    0.22
   4  -5  -3    1.91    0.24
  -4   5   3    1.34    0.20
   3  -5  -3   13.99    0.72
  -3   5   3   14.39    0.72
   2  -5  -3   17.12    0.83
  -2   5   3   16.71    0.82
   1  -5  -3   52.24    2.33
  -1   5   3   52.43    2.33
   0  -5  -3   67.14    3.02
   0   5   3   69.81    3.01
  -1  -5  -3   67.11    2.94
   1   5   3   65.91    2.92
  -2  -5  -3   59.98    2.75
   2   5   3   64.08    2.74
  -3  -5  -3    1.89    0.22
  -3  -5  -3    1.74    0.21
   3   5   3    2.08    0.20
   4   5   3    4.61    0.32
  -5  -5  -3   24.72    1.18
   5   5   3   24.61    1.15
  -6  -5  -3   44.98    1.99
   6   5   3   42.18    1.96
  -7  -5  -3   83.30    3.60
   7   5   3   79.09    3.58
  -8  -5  -3   25.34    1.23
   8   5   3   25.20    1.21
  -9  -5  -3   14.94    0.80
   9   5   3   13.72    0.76
 -10  -5  -3    3.81    0.38
 -11  -5  -3    0.38    0.24
 -12  -5  -3    0.63    0.29
 -13  -5  -3    0.94    0.33
  12  -6  -3   -0.24    0.31
 -12   6   3    0.23    0.33
  11  -6  -3    1.84    0.35
 -11   6   3    1.92    0.38
  10  -6  -3    1.89    0.34
 -10   6   3    2.13    0.37
   9  -6  -3    2.45    0.35
  -9   6   3    3.16    0.37
   8  -6  -3    4.67    0.43
  -8   6   3    4.24    0.42
   7  -6  -3   44.96    2.07
  -7   6   3   43.79    2.05
   6  -6  -3    2.06    0.28
  -6   6   3    1.99    0.27
   5  -6  -3   30.10    1.42
  -5   6   3   29.00    1.40
   4  -6  -3    2.57    0.29
  -4   6   3    2.39    0.27
   3  -6  -3    0.70    0.18
  -3   6   3    0.77    0.18
   2  -6  -3   10.41    0.59
  -2   6   3   10.39    0.57
   1  -6  -3   18.97    0.97
  -1   6   3   20.35    0.95
   0  -6  -3   18.86    0.95
   0   6   3   20.08    0.94
  -1  -6  -3    0.18    0.16
   1   6   3    0.17    0.14
  -2  -6  -3    1.62    0.23
   2   6   3    1.58    0.19
  -3  -6  -3    3.24    0.31
   3   6   3    3.37    0.28
  -4  -6  -3   -0.13    0.17
  -4  -6  -3    0.12    0.17
   4   6   3    0.28    0.15
  -5  -6  -3    1.45    0.25
   5   6   3    1.63    0.21
  -6  -6  -3    8.54    0.54
   6   6   3    7.17    0.47
  -7  -6  -3   -0.19    0.19
   7   6   3    0.07    0.15
  -8  -6  -3   14.50    0.82
  -9  -6  -3    6.73    0.53
 -10  -6  -3    8.97    0.65
 -11  -6  -3    1.74    0.35
 -12  -6  -3    3.29    0.41
  11  -7  -3    0.53    0.34
 -11   7   3    0.08    0.30
  10  -7  -3    0.96    0.34
 -10   7   3    1.15    0.35
   9  -7  -3    3.62    0.42
  -9   7   3    2.94    0.40
   8  -7  -3    1.23    0.30
  -8   7   3    1.40    0.31
   7  -7  -3    0.78    0.28
  -7   7   3    1.24    0.27
   6  -7  -3    7.95    0.58
  -6   7   3    7.86    0.57
   5  -7  -3    6.37    0.50
  -5   7   3    5.94    0.48
   4  -7  -3    2.69    0.31
  -4   7   3    2.29    0.29
   3  -7  -3   22.13    1.10
  -3   7   3   21.95    1.08
   2  -7  -3    0.51    0.20
  -2   7   3    0.27    0.18
   1  -7  -3    3.51    0.32
  -1   7   3    3.79    0.33
   0  -7  -3    0.48    0.19
   0   7   3    0.15    0.15
  -1  -7  -3    3.94    0.35
   1   7   3    3.36    0.30
  -2  -7  -3    0.26    0.18
   2   7   3    0.38    0.16
  -3  -7  -3    1.57    0.26
   3   7   3    2.06    0.23
  -4  -7  -3    0.24    0.20
   4   7   3    0.14    0.15
  -5  -7  -3    0.14    0.20
  -5  -7  -3    0.05    0.21
   5   7   3   -0.06    0.15
  -6  -7  -3    5.52    0.48
  -6  -7  -3    5.35    0.47
  -7  -7  -3    9.25    0.64
  -8  -7  -3    5.24    0.46
  -9  -7  -3    0.18    0.25
 -10  -7  -3    5.37    0.50
 -11  -7  -3    1.27    0.34
   9  -8  -3   11.52    0.82
  -9   8   3   12.35    0.81
   8  -8  -3    0.36    0.30
  -8   8   3    0.43    0.30
   7  -8  -3    1.32    0.32
  -7   8   3    1.59    0.31
   6  -8  -3    3.16    0.39
  -6   8   3    3.26    0.36
   5  -8  -3    0.80    0.27
  -5   8   3    0.91    0.26
   4  -8  -3    1.29    0.30
  -4   8   3    0.90    0.23
   3  -8  -3    0.40    0.24
  -3   8   3    0.27    0.21
   2  -8  -3    1.20    0.26
  -2   8   3    1.25    0.24
   1  -8  -3    0.11    0.21
  -1   8   3    0.41    0.18
   0  -8  -3    0.73    0.23
   0   8   3    0.83    0.19
  -1  -8  -3    0.69    0.22
   1   8   3    0.33    0.16
  -2  -8  -3   16.87    0.88
   2   8   3   15.47    0.86
  -3  -8  -3    0.03    0.20
  -4  -8  -3    3.12    0.35
  -5  -8  -3    1.28    0.27
  -6  -8  -3    1.28    0.29
  -7  -8  -3    6.50    0.56
  -7  -8  -3    6.65    0.57
  -8  -8  -3    1.39    0.33
  -8  -8  -3    1.04    0.31
  -9  -8  -3    0.30    0.29
  -9  -8  -3    0.45    0.29
   7  -9  -3    2.78    0.44
   6  -9  -3   13.09    0.85
   5  -9  -3    0.30    0.27
   4  -9  -3    0.20    0.27
   3  -9  -3    0.13    0.24
   2  -9  -3   24.92    1.28
   1  -9  -3    7.41    0.58
   0  -9  -3    3.54    0.38
  -1  -9  -3    1.66    0.30
  -2  -9  -3    0.79    0.27
  -3  -9  -3    1.23    0.29
  -4  -9  -3    0.20    0.26
  -5  -9  -3   -0.11    0.25
  -6  -9  -3    0.42    0.28
  -7  -9  -3    5.28    0.50
   4 -10  -3    3.82    0.45
   3 -10  -3    0.25    0.30
   2 -10  -3    1.65    0.33
   1 -10  -3   10.35    0.73
   0 -10  -3    1.16    0.32
  -1 -10  -3    3.61    0.41
  -2 -10  -3    0.27    0.27
  -3 -10  -3    4.42    0.47
  -4 -10  -3    1.58    0.33
  -4 -10   4    0.56    0.23
  -3 -10   4    0.07    0.21
  -2 -10   4    1.18    0.26
  -1 -10   4   -0.03    0.21
   0 -10   4   27.36    1.35
   1 -10   4    1.32    0.28
   2 -10   4    7.26    0.57
   3 -10   4    1.79    0.32
   4 -10   4   -0.07    0.26
  -7  -9   4    8.35    0.57
  -6  -9   4    5.60    0.46
  -5  -9   4    0.02    0.19
  -4  -9   4    4.91    0.41
  -3  -9   4    5.63    0.44
  -2  -9   4    2.05    0.26
  -1  -9   4   29.64    1.41
   0  -9   4    2.34    0.28
   1  -9   4    5.45    0.46
   2  -9   4    0.73    0.23
   3  -9   4   10.21    0.65
   4  -9   4    4.44    0.42
   5  -9   4    0.19    0.25
   6  -9   4   13.06    0.82
   7  -9   4   12.67    0.83
  -9  -8   4    2.08    0.31
  -9  -8   4    2.80    0.34
  -8  -8   4   12.11    0.72
  -8  -8   4   12.45    0.71
  -7  -8   4   10.55    0.63
  -6  -8   4   -0.07    0.18
  -5  -8   4   15.91    0.82
  -4  -8   4    7.93    0.49
  -3  -8   4   19.36    0.95
  -2  -8   4    7.48    0.47
  -1  -8   4    1.15    0.20
   0  -8   4    3.14    0.28
   1  -8   4    1.14    0.22
   2  -8   4    0.50    0.19
   3  -8   4   10.27    0.62
   4  -8   4    3.43    0.34
   5  -8   4   32.25    1.55
   6  -8   4    3.83    0.40
   7  -8   4    3.85    0.43
   8  -8   4    1.76    0.33
   9  -8   4    0.76    0.33
 -11  -7   4   10.69    0.69
 -10  -7   4    2.94    0.34
  -9  -7   4    5.07    0.42
  -8  -7   4    2.06    0.27
  -7  -7   4    3.62    0.32
  -6  -7   4   21.69    1.04
  -6  -7   4   21.47    1.04
  -5  -7   4    0.29    0.16
  -4  -7   4   95.73    4.18
  -3  -7   4    1.03    0.17
  -2  -7   4   14.88    0.74
  -1  -7   4    2.60    0.24
   0  -7   4    2.83    0.25
   1  -7   4    0.37    0.16
   2  -7   4    9.71    0.56
  -3   7  -4    0.37    0.15
   3  -7   4    0.18    0.17
   4  -7   4   27.39    1.31
   5  -7   4    0.58    0.21
   6  -7   4   29.28    1.42
   7  -7   4    2.47    0.32
   8  -7   4    9.35    0.66
   9  -7   4   10.79    0.74
  10  -7   4   16.17    0.98
 -12  -6   4    0.96    0.27
 -11  -6   4    1.89    0.29
 -10  -6   4    2.79    0.30
  -9  -6   4    1.09    0.21
  -8  -6   4    1.15    0.22
  -7  -6   4    6.16    0.41
  -6  -6   4    1.08    0.19
  -5  -6   4   12.78    0.63
  -5  -6   4   12.53    0.62
  -5  -6   4   11.19    0.60
  -4  -6   4    1.07    0.17
  -4  -6   4    1.04    0.14
  -3  -6   4   85.62    3.50
  -3  -6   4   74.61    3.49
  -2  -6   4   14.69    0.69
  -2  -6   4   13.96    0.68
   1   6  -4    9.80    0.47
  -1  -6   4    9.97    0.51
   0   6  -4   41.17    1.77
   0  -6   4   41.32    1.80
   0  -6   4   38.25    1.79
  -1   6  -4    6.22    0.33
   1  -6   4    6.17    0.37
   1  -6   4    5.48    0.34
  -2   6  -4    0.83    0.13
   2  -6   4    0.51    0.15
   2  -6   4    0.57    0.12
  -3   6  -4   54.17    2.33
   3  -6   4   57.49    2.36
   3  -6   4   46.83    2.34
  -4   6  -4    0.52    0.15
   4  -6   4    0.88    0.19
  -5   6  -4   57.76    2.64
   5  -6   4   61.14    2.67
  -6   6  -4   22.96    1.12
   6  -6   4   23.81    1.15
  -7   6  -4    0.16    0.19
   7  -6   4   -0.08    0.19
  -8   6  -4    1.66    0.27
   8  -6   4    1.72    0.29
  -9   6  -4    0.60    0.24
   9  -6   4    0.75    0.29
 -10   6  -4    1.33    0.29
  10  -6   4    1.46    0.34
  11  -6   4    1.03    0.34
  12  -6   4    0.74    0.34
 -13  -5   4   -0.08    0.24
 -12  -5   4    2.52    0.32
 -11  -5   4    1.92    0.27
 -10  -5   4    0.20    0.18
  -9  -5   4    0.00    0.16
  -8  -5   4    0.17    0.15
  -7  -5   4    0.03    0.12
  -7  -5   4    0.06    0.09
  -6  -5   4    8.31    0.44
  -6  -5   4    7.87    0.42
  -5  -5   4    4.26    0.27
  -5  -5   4    4.28    0.29
  -4  -5   4   25.81    1.21
  -4  -5   4   28.30    1.22
  -3  -5   4    0.28    0.09
  -3  -5   4    0.11    0.10
  -2  -5   4   38.76    1.78
  -2  -5   4   42.48    1.79
   1   5  -4   58.44    2.50
  -1  -5   4   55.78    2.52
  -1  -5   4   59.27    2.53
   0   5  -4    1.06    0.11
   0  -5   4    1.05    0.14
  -1   5  -4   80.96    3.47
   1  -5   4   77.28    3.49
   1  -5   4   82.10    3.49
  -2   5  -4   37.26    1.61
   2  -5   4   36.84    1.63
   2  -5   4   34.50    1.61
  -3   5  -4    3.65    0.25
   3  -5   4    2.77    0.24
   3  -5   4    3.54    0.28
  -4   5  -4   22.62    1.07
   4  -5   4   23.65    1.09
  -5   5  -4   11.82    0.64
   5  -5   4   13.74    0.68
  -6   5  -4   24.66    1.19
   6  -5   4   25.95    1.22
  -7   5  -4    0.49    0.18
   7  -5   4    0.29    0.19
  -8   5  -4    0.97    0.23
   8  -5   4    1.00    0.24
  -9   5  -4    0.22    0.20
   9  -5   4    0.22    0.25
 -10   5  -4    2.56    0.35
  10  -5   4    2.85    0.37
 -11   5  -4    2.76    0.37
  11  -5   4    3.07    0.39
 -12   5  -4    0.27    0.30
  12  -5   4    0.17    0.30
 -13   5  -4    2.99    0.44
  13  -5   4    3.51    0.48
 -13  -4   4    0.08    0.23
 -12  -4   4    4.26    0.38
 -11  -4   4    1.58    0.25
 -10  -4   4    0.03    0.16
  -9  -4   4    0.04    0.15
  -8  -4   4    6.86    0.41
  -7  -4   4    3.67    0.28
  -7  -4   4    3.72    0.24
  -6  -4   4   11.78    0.55
  -6  -4   4   10.09    0.53
  -5  -4   4   12.32    0.61
  -5  -4   4   13.40    0.61
  -4  -4   4    0.10    0.07
  -4  -4   4    0.32    0.09
  -3  -4   4    1.29    0.13
  -3  -4   4    1.05    0.11
  -2  -4   4    7.08    0.35
  -2  -4   4    7.42    0.36
   1   4  -4   45.14    2.00
  -1  -4   4   45.76    2.02
  -1  -4   4   47.92    2.02
   0   4  -4   17.14    0.78
   0  -4   4   18.07    0.80
   0  -4   4   17.36    0.79
  -1   4  -4    0.37    0.08
   1  -4   4    0.35    0.11
   1  -4   4    0.22    0.07
  -2   4  -4    0.89    0.11
   2  -4   4    1.04    0.14
   2  -4   4    0.87    0.11
  -3   4  -4    5.86    0.34
   3  -4   4    6.55    0.36
   3  -4   4    5.88    0.34
  -4   4  -4   38.15    1.66
   4  -4   4   34.01    1.65
   4  -4   4   38.99    1.67
  -5   4  -4    1.17    0.16
   5  -4   4    0.99    0.18
  -6   4  -4    7.54    0.45
   6  -4   4    7.80    0.47
  -7   4  -4    2.90    0.26
   7  -4   4    2.63    0.27
  -8   4  -4   15.99    0.83
   8  -4   4   16.38    0.86
  -9   4  -4    1.16    0.25
   9  -4   4    0.72    0.24
 -10   4  -4    0.84    0.26
  10  -4   4    0.45    0.24
 -11   4  -4    7.25    0.58
  11  -4   4    7.15    0.59
 -12   4  -4    2.05    0.35
  12  -4   4    1.52    0.34
 -13   4  -4    0.04    0.30
  13  -4   4   -0.50    0.28
 -14  -3   4    2.97    0.38
 -13  -3   4    2.04    0.31
 -12  -3   4   11.80    0.69
 -11  -3   4    3.03    0.30
 -10  -3   4    0.81    0.19
   9   3  -4   14.47    0.68
  -9  -3   4   13.53    0.71
   8   3  -4   11.15    0.54
  -8  -3   4   10.02    0.55
  -8  -3   4   12.16    0.58
   7   3  -4    3.20    0.20
  -7  -3   4    2.88    0.24
   6   3  -4    1.98    0.15
  -6  -3   4    2.08    0.17
  -6  -3   4    2.24    0.18
   5   3  -4    1.66    0.11
  -5  -3   4    1.88    0.17
  -5  -3   4    1.77    0.14
  -4  -3   4   83.37    3.50
  -4  -3   4   78.77    3.50
  -3  -3   4    1.87    0.14
  -3  -3   4    1.73    0.13
  -1  -3   4    0.64    0.08
  -1  -3   4    0.52    0.07
   0   3  -4    4.49    0.22
   0  -3   4    4.75    0.25
   0  -3   4    4.58    0.24
  -1   3  -4    7.28    0.35
   1  -3   4    7.41    0.37
  -2   3  -4  135.24    5.72
   2  -3   4  138.52    5.73
   2  -3   4  124.81    5.73
  -3   3  -4    1.42    0.14
   3  -3   4    1.44    0.15
   3  -3   4    1.77    0.15
  -4   3  -4  181.16    7.56
   4  -3   4  160.89    7.56
   4  -3   4  184.72    7.70
  -5   3  -4    1.80    0.18
   5  -3   4    1.99    0.19
  -6   3  -4    0.81    0.15
   6  -3   4    0.81    0.16
  -7   3  -4    3.31    0.30
   7  -3   4    3.58    0.31
  -8   3  -4    0.22    0.16
   8  -3   4    0.15    0.18
  -9   3  -4   -0.05    0.19
   9  -3   4    0.19    0.20
 -10   3  -4    2.09    0.30
  10  -3   4    2.58    0.33
 -11   3  -4    0.45    0.24
  11  -3   4    0.35    0.24
 -12   3  -4    1.07    0.29
  12  -3   4    1.34    0.32
 -13   3  -4    8.24    0.66
  13  -3   4    6.70    0.58
 -14   3  -4    1.84    0.39
  14  -3   4    2.53    0.42
 -14  -2   4    1.37    0.31
 -13  -2   4    8.50    0.60
 -12  -2   4    3.16    0.33
 -11  -2   4    3.41    0.32
  10   2  -4    2.98    0.27
 -10  -2   4    2.62    0.27
   9   2  -4    0.36    0.13
  -9  -2   4    0.35    0.15
   8   2  -4    7.16    0.39
  -8  -2   4    6.37    0.38
  -8  -2   4    7.72    0.42
   7   2  -4    5.64    0.31
  -7  -2   4    5.31    0.33
  -7  -2   4    5.23    0.31
   6   2  -4    1.23    0.12
  -6  -2   4    1.38    0.14
   5   2  -4   96.20    4.20
  -5  -2   4   93.68    4.21
  -5  -2   4  102.42    4.21
   4   2  -4   11.44    0.54
  -4  -2   4   12.22    0.55
  -4  -2   4   12.94    0.56
  -3  -2   4   15.33    0.70
  -3  -2   4   16.51    0.70
   0   2  -4  188.99    8.33
   0   2  -4  186.79    8.33
   0  -2   4  206.28    8.38
   0  -2   4  194.61    8.38
  -1   2  -4   29.57    1.29
   1  -2   4   29.46    1.29
  -2   2  -4   87.46    3.72
   2  -2   4   88.58    3.72
   2  -2   4   82.05    3.72
  -3   2  -4  110.83    4.55
   3  -2   4  105.80    4.55
   3  -2   4   99.18    4.55
  -4   2  -4   55.76    2.37
   4  -2   4   54.92    2.38
   4  -2   4   51.43    2.37
  -5   2  -4  124.22    5.35
   5  -2   4  122.49    5.35
  -6   2  -4   16.83    0.83
   6  -2   4   17.51    0.84
  -7   2  -4    1.81    0.20
   7  -2   4    1.72    0.21
  -8   2  -4    2.70    0.28
   8  -2   4    3.08    0.30
  -9   2  -4    0.31    0.20
   9  -2   4    0.12    0.19
 -10   2  -4    8.24    0.54
  10  -2   4    7.90    0.56
 -11   2  -4    8.27    0.60
  11  -2   4    9.10    0.62
 -12   2  -4    0.40    0.26
  12  -2   4    0.48    0.27
 -13   2  -4    5.24    0.50
  13  -2   4    6.75    0.57
 -14   2  -4    0.76    0.34
  14  -2   4    0.43    0.32
 -14  -1   4    2.88    0.38
 -13  -1   4    2.62    0.34
 -12  -1   4   26.17    1.29
 -11  -1   4   29.90    1.43
  10   1  -4    4.92    0.35
 -10  -1   4    4.68    0.37
   9   1  -4   21.70    0.98
  -9  -1   4   22.39    1.00
  -9  -1   4   18.49    0.98
   8   1  -4    8.47    0.45
  -8  -1   4    7.63    0.45
  -8  -1   4    9.13    0.47
   7   1  -4  115.67    5.09
  -7  -1   4  126.84    5.11
  -7  -1   4  110.63    5.10
   6   1  -4   19.46    0.85
  -6  -1   4   19.52    0.86
  -6  -1   4   17.08    0.85
   5   1  -4    9.10    0.42
  -5  -1   4    7.70    0.42
  -5  -1   4    9.42    0.44
   4   1  -4   51.24    2.20
  -4  -1   4   51.92    2.21
  -4  -1   4   49.31    2.21
   3   1  -4  192.24    8.41
  -3  -1   4  203.06    8.44
  -3  -1   4  192.43    8.45
  -2  -1   4    0.29    0.05
  -2  -1   4    0.25    0.04
   0   1  -4    1.36    0.09
   0   1  -4    1.37    0.09
   0  -1   4    1.49    0.10
   0  -1   4    1.41    0.10
  -1   1  -4   80.32    3.49
  -1   1  -4   79.15    3.49
   1  -1   4   83.33    3.49
  -2   1  -4   11.16    0.49
   2  -1   4   10.16    0.49
   2  -1   4   10.08    0.49
  -3   1  -4   36.88    1.54
   3  -1   4   35.38    1.54
   3  -1   4   32.49    1.54
  -4   1  -4   26.43    1.11
   4  -1   4   23.64    1.11
   4  -1   4   23.20    1.10
  -5   1  -4   16.02    0.76
   5  -1   4   15.89    0.77
  -6   1  -4   13.09    0.64
   6  -1   4   12.52    0.65
  -7   1  -4   75.02    3.37
   7  -1   4   78.45    3.38
  -8   1  -4   12.70    0.65
   8  -1   4   11.54    0.66
  -9   1  -4   77.23    3.46
   9  -1   4   79.12    3.47
 -10   1  -4    6.91    0.49
  10  -1   4    7.23    0.51
 -11   1  -4    1.05    0.25
  11  -1   4    0.88    0.25
 -12   1  -4    6.26    0.55
  12  -1   4    6.08    0.53
 -13   1  -4    3.25    0.39
  13  -1   4    2.56    0.37
 -14   1  -4   15.48    0.93
  14  -1   4   14.34    0.91
 -15   0   4    3.63    0.45
 -14   0   4   12.48    0.81
 -13   0   4    3.65    0.40
 -12   0   4    0.01    0.22
  11   0  -4    4.58    0.38
 -11   0   4    5.13    0.43
  10   0  -4   46.02    2.13
 -10   0   4   48.69    2.15
   9   0  -4    1.84    0.21
  -9   0   4    2.06    0.24
   8   0  -4  216.08    9.41
  -8   0   4  220.15    9.42
   7   0  -4   38.38    1.61
  -7   0   4   37.80    1.62
  -7   0   4   31.96    1.61
   6   0  -4   10.77    0.49
  -6   0   4    8.48    0.48
  -6   0   4    9.57    0.49
   5   0  -4  430.94   17.99
  -5   0   4  392.36   17.98
  -5   0   4  428.49   18.06
   4   0  -4   15.26    0.68
  -4   0   4   14.94    0.68
  -4   0   4   14.10    0.67
   3   0  -4   26.79    1.13
  -3   0   4   25.27    1.13
  -3   0   4   24.68    1.13
   2   0  -4   62.84    2.73
  -2   0   4   63.69    2.73
   1   0  -4   98.36    4.44
   1   0  -4  106.57    4.46
  -1   0   4  104.12    4.47
   0   0  -4  143.65    6.16
   0   0  -4  139.91    6.16
   0   0  -4  140.08    6.16
   0   0   4  144.38    6.18
   0   0   4  143.15    6.17
  -1   0  -4   23.53    1.04
  -1   0  -4   22.52    1.04
   1   0   4   22.81    1.04
   1   0   4   23.20    1.04
  -2   0  -4  180.67    7.72
   2   0   4  182.52    7.81
   2   0   4  173.51    7.77
  -3   0  -4   33.34    1.51
   3   0   4   36.01    1.52
   3   0   4   33.16    1.51
  -4   0  -4   18.46    0.89
   4   0   4   20.16    0.90
  -5   0  -4  179.56    7.75
  -6   0  -4    9.14    0.50
   6   0   4    9.39    0.50
  -7   0  -4    0.58    0.15
   7   0   4    0.42    0.15
  -8   0  -4  128.31    5.52
   8   0   4  124.75    5.52
  -9   0  -4    0.29    0.19
   9   0   4    0.12    0.17
 -10   0  -4   96.36    4.20
  10   0   4   93.74    4.20
 -11   0  -4   15.03    0.85
  11   0   4   16.27    0.87
 -12   0  -4    1.13    0.27
  12   0   4    1.68    0.29
 -13   0  -4    2.62    0.39
  13   0   4    2.47    0.36
 -14   0  -4    6.40    0.56
  14   0   4    6.84    0.60
 -14   1   4    3.50    0.42
 -13   1   4    1.81    0.32
  12  -1  -4   25.20    1.29
 -12   1   4   27.92    1.32
  11  -1  -4   29.00    1.43
 -11   1   4   31.10    1.45
  10  -1  -4    5.18    0.40
 -10   1   4    5.68    0.43
   9  -1  -4   23.74    1.14
  -9   1   4   24.19    1.15
   8  -1  -4    9.71    0.52
  -8   1   4    8.87    0.52
   7  -1  -4  129.69    5.60
  -7   1   4  128.54    5.61
   6  -1  -4   19.97    0.89
  -6   1   4   17.25    0.88
  -6   1   4   20.02    0.90
   5  -1  -4    9.47    0.47
  -5   1   4    8.21    0.46
  -5   1   4    9.66    0.48
   4  -1  -4   53.57    2.25
  -4   1   4   47.35    2.25
  -4   1   4   53.44    2.26
   3  -1  -4  201.91    8.50
  -3   1   4  197.17    8.45
  -3   1   4  190.13    8.48
   2  -1  -4    0.40    0.09
  -2   1   4    0.28    0.09
  -2   1   4    0.20    0.09
   1  -1  -4  163.56    6.65
  -1   1   4  150.66    6.61
  -1   1   4  146.47    6.65
   0  -1  -4    1.56    0.13
   0  -1  -4    1.73    0.14
   0   1   4    1.16    0.12
   0   1   4    1.47    0.13
  -1  -1  -4   71.37    3.29
  -1  -1  -4   80.03    3.30
   1   1   4   76.97    3.29
   1   1   4   75.64    3.29
  -2  -1  -4   11.09    0.52
   2   1   4   10.68    0.53
  -3  -1  -4   36.38    1.61
  -4  -1  -4   24.85    1.13
   4   1   4   24.90    1.13
  -5  -1  -4   15.44    0.74
   5   1   4   15.49    0.75
  -6  -1  -4   12.65    0.64
  -7  -1  -4   73.22    3.30
   7   1   4   76.58    3.30
  -8  -1  -4   12.58    0.67
   8   1   4   12.21    0.66
  -9  -1  -4   75.37    3.41
   9   1   4   78.44    3.41
 -10  -1  -4    7.45    0.51
  10   1   4    7.32    0.51
 -11  -1  -4    0.57    0.25
  11   1   4    0.69    0.22
 -12  -1  -4    4.70    0.43
  12   1   4    6.05    0.50
 -13  -1  -4    2.50    0.37
  13   1   4    3.00    0.36
 -14  -1  -4   14.92    0.92
 -14   2   4    2.53    0.40
 -13   2   4    8.77    0.66
  12  -2  -4    3.69    0.38
 -12   2   4    4.40    0.43
  11  -2  -4    3.80    0.35
 -11   2   4    3.41    0.35
  10  -2  -4    3.11    0.31
 -10   2   4    3.32    0.34
   9  -2  -4    0.23    0.17
  -9   2   4    0.32    0.18
   8  -2  -4    7.98    0.48
  -8   2   4    8.18    0.50
   7  -2  -4    5.76    0.39
  -7   2   4    6.13    0.40
   6  -2  -4    1.54    0.19
  -6   2   4    1.22    0.18
   5  -2  -4  104.17    4.55
  -5   2   4  105.18    4.55
   4  -2  -4   13.34    0.64
  -4   2   4   12.84    0.64
   3  -2  -4   16.64    0.75
  -3   2   4   14.72    0.74
  -3   2   4   16.07    0.75
   2  -2  -4   27.68    1.19
  -2   2   4   25.03    1.19
  -2   2   4   26.88    1.19
   1  -2  -4   27.63    1.20
  -1   2   4   27.53    1.20
  -1   2   4   25.00    1.19
   0  -2  -4  191.96    8.17
   0   2   4  178.13    8.09
   0   2   4  180.24    8.03
   0   2   4  196.05    8.03
  -1  -2  -4   30.82    1.34
  -1  -2  -4   29.74    1.34
   1   2   4   29.48    1.34
  -2  -2  -4   86.07    3.75
   2   2   4   86.42    3.74
  -3  -2  -4  106.66    4.66
   3   2   4  108.14    4.66
  -4  -2  -4   51.52    2.34
   4   2   4   54.80    2.35
  -5  -2  -4  120.05    5.28
   5   2   4  123.02    5.28
  -6  -2  -4   16.30    0.80
   6   2   4   16.28    0.80
  -7  -2  -4    2.12    0.22
   7   2   4    2.65    0.25
  -8  -2  -4    1.69    0.23
   8   2   4    2.62    0.26
  -9  -2  -4    0.18    0.17
   9   2   4    0.12    0.16
 -10  -2  -4    7.71    0.53
  10   2   4    7.44    0.51
 -11  -2  -4    7.97    0.56
  11   2   4    7.19    0.53
 -12  -2  -4    0.09    0.24
  12   2   4    0.21    0.21
 -13  -2  -4    4.80    0.47
  13   2   4    5.34    0.49
 -14  -2  -4   -0.26    0.30
 -14   3   4    3.55    0.46
 -13   3   4    2.70    0.40
  12  -3  -4   12.07    0.75
 -12   3   4   12.40    0.78
  11  -3  -4    2.85    0.34
 -11   3   4    3.52    0.37
  10  -3  -4    1.23    0.24
 -10   3   4    0.72    0.25
   9  -3  -4   15.86    0.83
  -9   3   4   16.07    0.84
   8  -3  -4   13.24    0.70
  -8   3   4   12.76    0.71
   7  -3  -4    3.74    0.32
  -7   3   4    3.42    0.31
   6  -3  -4    1.96    0.22
  -6   3   4    2.28    0.25
   5  -3  -4    1.72    0.19
  -5   3   4    1.56    0.19
   4  -3  -4   83.97    3.67
  -4   3   4   83.95    3.67
   3  -3  -4    1.64    0.17
  -3   3   4    2.06    0.20
   2  -3  -4  121.72    5.13
  -2   3   4  114.87    5.13
   1  -3  -4    0.59    0.13
  -1   3   4    0.49    0.12
   0  -3  -4    4.10    0.29
   0   3   4    4.39    0.29
   1   3   4    7.06    0.39
  -2  -3  -4  134.24    5.85
   2   3   4  136.20    5.85
  -3  -3  -4    1.42    0.17
   3   3   4    2.13    0.20
  -4  -3  -4  185.14    8.18
   4   3   4  193.49    8.18
  -5  -3  -4    2.08    0.21
   5   3   4    1.93    0.20
  -6  -3  -4    0.90    0.18
   6   3   4    0.77    0.15
  -7  -3  -4    3.67    0.32
   7   3   4    3.38    0.31
  -8  -3  -4    0.20    0.18
   8   3   4    0.22    0.16
  -9  -3  -4    0.13    0.19
   9   3   4    0.21    0.17
 -10  -3  -4    1.87    0.28
  10   3   4    1.64    0.25
 -11  -3  -4    0.18    0.23
  11   3   4   -0.18    0.19
 -12  -3  -4    0.79    0.29
  12   3   4    1.10    0.25
 -13  -3  -4    7.52    0.63
 -14  -3  -4    2.26    0.39
  13  -4  -4    0.21    0.30
 -13   4   4    0.37    0.33
  12  -4  -4    5.86    0.51
 -12   4   4    4.99    0.51
  11  -4  -4    1.39    0.30
 -11   4   4    2.08    0.34
  10  -4  -4   -0.12    0.22
 -10   4   4    0.04    0.25
   9  -4  -4   -0.19    0.19
  -9   4   4    0.04    0.22
   8  -4  -4    7.51    0.51
  -8   4   4    6.81    0.49
   7  -4  -4    4.37    0.37
  -7   4   4    3.82    0.33
   6  -4  -4   11.32    0.63
  -6   4   4   11.28    0.63
   5  -4  -4   13.53    0.72
  -5   4   4   14.25    0.72
   4  -4  -4    0.37    0.16
  -4   4   4    0.25    0.15
   3  -4  -4    1.05    0.17
  -3   4   4    0.69    0.14
   2  -4  -4    8.09    0.46
  -2   4   4    8.34    0.46
   1  -4  -4   52.68    2.27
  -1   4   4   49.36    2.26
   0  -4  -4   17.36    0.84
   0   4   4   17.60    0.83
  -1  -4  -4    0.18    0.13
   1   4   4    0.05    0.12
  -2  -4  -4    0.75    0.15
  -2  -4  -4    0.90    0.16
   2   4   4    1.10    0.16
  -3  -4  -4    6.16    0.39
   3   4   4    5.91    0.37
  -4  -4  -4   38.28    1.75
   4   4   4   38.90    1.74
  -5  -4  -4    1.07    0.18
   5   4   4    0.96    0.16
  -6  -4  -4    7.79    0.47
   6   4   4    7.60    0.46
  -7  -4  -4    2.49    0.26
   7   4   4    3.25    0.28
  -8  -4  -4   15.31    0.82
   8   4   4   15.84    0.81
  -9  -4  -4    0.60    0.20
   9   4   4    1.02    0.20
 -10  -4  -4    0.40    0.23
  10   4   4    0.20    0.19
 -11  -4  -4    6.85    0.55
 -12  -4  -4    1.22    0.31
 -13  -4  -4    0.00    0.27
  13  -5  -4   -0.01    0.31
 -13   5   4   -0.31    0.32
  12  -5  -4    3.62    0.45
 -12   5   4    3.31    0.45
  11  -5  -4    2.41    0.36
 -11   5   4    2.98    0.41
  10  -5  -4    0.35    0.27
 -10   5   4   -0.11    0.25
   9  -5  -4    0.25    0.22
  -9   5   4   -0.30    0.22
   8  -5  -4    0.13    0.21
  -8   5   4    0.42    0.23
   7  -5  -4    0.12    0.19
  -7   5   4    0.00    0.20
   6  -5  -4    8.82    0.57
  -6   5   4   10.16    0.58
   5  -5  -4    4.94    0.38
  -5   5   4    4.00    0.37
   4  -5  -4   29.03    1.36
  -4   5   4   29.01    1.36
   3  -5  -4    0.37    0.17
  -3   5   4    0.16    0.14
   2  -5  -4   42.38    1.89
  -2   5   4   41.31    1.88
   1  -5  -4   62.81    2.71
  -1   5   4   59.40    2.70
   0  -5  -4    1.03    0.18
   0   5   4    1.33    0.19
  -1  -5  -4   80.72    3.54
   1   5   4   80.14    3.52
  -2  -5  -4   39.44    1.78
   2   5   4   38.84    1.77
  -3  -5  -4    3.66    0.32
  -3  -5  -4    3.38    0.30
   3   5   4    4.08    0.31
  -4  -5  -4   22.78    1.10
   4   5   4   22.92    1.08
  -5  -5  -4   12.44    0.69
   5   5   4   12.81    0.66
  -6  -5  -4   24.34    1.19
   6   5   4   24.61    1.17
  -7  -5  -4    0.28    0.20
   7   5   4    0.27    0.17
  -8  -5  -4    0.60    0.19
   8   5   4    0.89    0.20
  -9  -5  -4    0.18    0.21
   9   5   4    0.21    0.19
 -10  -5  -4    1.79    0.30
 -11  -5  -4    1.80    0.31
 -12  -5  -4    0.00    0.27
 -13  -5  -4    3.15    0.43
  12  -6  -4    1.11    0.36
 -12   6   4    1.25    0.38
  11  -6  -4    2.08    0.36
 -11   6   4    1.98    0.38
  10  -6  -4    4.39    0.46
 -10   6   4    3.87    0.43
   9  -6  -4    1.24    0.31
  -9   6   4    0.84    0.30
   8  -6  -4    1.24    0.28
  -8   6   4    1.08    0.28
   7  -6  -4    7.30    0.54
  -7   6   4    6.61    0.53
   6  -6  -4    1.47    0.28
  -6   6   4    1.42    0.27
   5  -6  -4   14.60    0.77
  -5   6   4   13.08    0.75
   4  -6  -4    1.49    0.25
  -4   6   4    1.26    0.23
   3  -6  -4   87.01    3.85
  -3   6   4   87.18    3.84
   2  -6  -4   15.47    0.81
  -2   6   4   16.03    0.80
   1  -6  -4   10.89    0.62
  -1   6   4   11.07    0.60
   0  -6  -4   44.01    2.00
   0   6   4   43.85    1.98
   1   6   4    6.54    0.42
  -2  -6  -4    0.74    0.20
   2   6   4    0.89    0.17
  -3  -6  -4   59.58    2.65
   3   6   4   58.14    2.62
  -4  -6  -4    0.32    0.19
  -4  -6  -4    1.00    0.21
   4   6   4    0.53    0.16
  -5  -6  -4   61.71    2.72
  -5  -6  -4   62.08    2.72
   5   6   4   56.79    2.68
  -6  -6  -4   24.04    1.19
   6   6   4   23.69    1.15
  -7  -6  -4    0.29    0.22
   7   6   4    0.16    0.16
  -8  -6  -4    1.44    0.28
  -9  -6  -4    0.50    0.25
 -10  -6  -4    0.99    0.30
 -11  -6  -4    1.46    0.35
 -12  -6  -4    0.34    0.34
  11  -7  -4   12.35    0.83
 -11   7   4   11.30    0.84
  10  -7  -4    2.66    0.40
 -10   7   4    3.08    0.42
   9  -7  -4    6.97    0.58
  -9   7   4    5.77    0.52
   8  -7  -4    2.99    0.40
  -8   7   4    2.63    0.38
   7  -7  -4    3.82    0.39
  -7   7   4    4.22    0.41
   6  -7  -4   23.47    1.21
  -6   7   4   23.56    1.19
   5  -7  -4    0.46    0.23
  -5   7   4    0.60    0.23
   4  -7  -4   99.46    4.28
  -4   7   4   93.53    4.26
   3  -7  -4    1.08    0.22
  -3   7   4    0.99    0.22
   2  -7  -4   15.14    0.83
  -2   7   4   15.27    0.80
   1  -7  -4    2.57    0.30
  -1   7   4    2.67    0.28
   0  -7  -4    3.26    0.32
   0   7   4    2.96    0.30
  -1  -7  -4    0.75    0.21
   1   7   4    0.30    0.16
  -2  -7  -4   11.25    0.64
   2   7   4    9.98    0.59
  -3  -7  -4    0.15    0.20
   3   7   4    0.13    0.16
  -4  -7  -4   26.24    1.28
   4   7   4   25.97    1.24
  -5  -7  -4    0.55    0.23
   5   7   4    0.94    0.20
  -6  -7  -4   30.12    1.45
  -6  -7  -4   28.62    1.43
  -7  -7  -4    3.98    0.41
  -8  -7  -4    7.89    0.61
  -9  -7  -4   11.51    0.77
 -10  -7  -4   15.42    0.95
 -11  -7  -4    1.68    0.38
   9  -8  -4    2.20    0.40
  -9   8   4    2.85    0.42
   8  -8  -4   13.71    0.87
  -8   8   4   13.43    0.85
   7  -8  -4   11.31    0.77
  -7   8   4   11.86    0.75
   6  -8  -4   -0.07    0.27
  -6   8   4    0.13    0.25
   5  -8  -4   16.89    0.93
  -5   8   4   15.47    0.89
   4  -8  -4    9.83    0.67
  -4   8   4    9.70    0.63
   3  -8  -4   21.22    1.08
  -3   8   4   20.21    1.05
   2  -8  -4    8.38    0.60
  -2   8   4    8.31    0.55
   1  -8  -4    1.08    0.26
  -1   8   4    1.12    0.22
   0  -8  -4    3.97    0.38
   0   8   4    3.45    0.32
  -1  -8  -4    0.60    0.24
   1   8   4    1.15    0.22
  -2  -8  -4    0.52    0.22
   2   8   4    0.57    0.19
  -3  -8  -4   11.97    0.73
  -4  -8  -4    2.83    0.34
  -5  -8  -4   34.37    1.66
  -6  -8  -4    3.62    0.40
  -7  -8  -4    3.23    0.39
  -7  -8  -4    3.16    0.39
  -8  -8  -4    1.58    0.34
  -8  -8  -4    1.43    0.32
  -9  -8  -4    0.87    0.34
  -9  -8  -4    0.51    0.33
   7  -9  -4    8.34    0.71
   6  -9  -4    6.77    0.58
   5  -9  -4   -0.06    0.27
   4  -9  -4    4.36    0.45
   3  -9  -4    4.77    0.44
   2  -9  -4    1.95    0.33
   1  -9  -4   31.57    1.56
   0  -9  -4    3.00    0.38
  -1  -9  -4    6.05    0.53
  -2  -9  -4    0.23    0.25
  -3  -9  -4    9.99    0.68
  -4  -9  -4    4.25    0.43
  -5  -9  -4    0.28    0.28
  -6  -9  -4   12.89    0.82
  -7  -9  -4   11.55    0.78
   4 -10  -4    0.40    0.31
   3 -10  -4    0.51    0.32
   2 -10  -4    0.76    0.29
   1 -10  -4    0.15    0.27
   0 -10  -4   28.59    1.46
  -1 -10  -4    1.79    0.36
  -2 -10  -4    7.96    0.65
  -3 -10  -4    2.42    0.38
  -4 -10  -4    0.24    0.29
  -3 -10   5    1.96    0.28
  -2 -10   5    0.88    0.24
  -1 -10   5    7.98    0.56
   0 -10   5   11.81    0.71
   1 -10   5    3.07    0.35
   2 -10   5    3.00    0.35
   3 -10   5    0.35    0.25
  -7  -9   5    7.32    0.52
  -6  -9   5    0.72    0.22
  -5  -9   5    0.07    0.19
  -4  -9   5   -0.18    0.18
  -3  -9   5    0.78    0.21
  -2  -9   5    2.52    0.28
  -1  -9   5    3.71    0.33
   0  -9   5    0.09    0.19
   1  -9   5    1.07    0.24
   2  -9   5    0.91    0.24
   3  -9   5    3.46    0.35
   4  -9   5    0.33    0.24
   5  -9   5    0.29    0.26
   6  -9   5    7.43    0.59
   7  -9   5    2.48    0.39
  -9  -8   5    0.13    0.23
  -9  -8   5    0.26    0.22
  -8  -8   5    4.44    0.38
  -7  -8   5    1.29    0.24
  -6  -8   5    1.83    0.24
  -5  -8   5    8.30    0.50
  -4  -8   5    0.38    0.17
  -3  -8   5    0.35    0.16
  -2  -8   5    2.54    0.25
  -1  -8   5    0.89    0.19
   0  -8   5   10.19    0.58
   1  -8   5    0.24    0.17
   2  -8   5    1.08    0.23
   3  -8   5    2.21    0.28
   4  -8   5    2.15    0.28
   5  -8   5    0.27    0.22
   6  -8   5    1.74    0.30
   7  -8   5    6.46    0.57
   8  -8   5   10.39    0.73
   9  -8   5    1.37    0.35
 -10  -7   5    2.62    0.32
  -9  -7   5    0.52    0.22
  -8  -7   5    0.06    0.19
  -7  -7   5    0.29    0.18
  -7  -7   5    0.28    0.18
  -6  -7   5    6.33    0.42
  -5  -7   5    2.65    0.25
  -4  -7   5   10.68    0.57
  -3  -7   5    3.48    0.28
  -2  -7   5    2.59    0.23
  -1  -7   5    1.06    0.17
   0  -7   5    1.54    0.19
   1  -7   5    0.55    0.17
   2  -7   5   -0.12    0.14
   3  -7   5    0.88    0.19
   4  -7   5    1.80    0.26
   5  -7   5   19.27    0.99
   6  -7   5    3.70    0.36
   7  -7   5    0.52    0.24
   8  -7   5    0.64    0.27
   9  -7   5    8.22    0.65
  10  -7   5    1.26    0.36
 -12  -6   5    4.60    0.42
 -11  -6   5    3.62    0.36
 -10  -6   5   15.16    0.81
  -9  -6   5    4.19    0.36
  -8  -6   5   45.64    2.06
  -7  -6   5    2.99    0.27
  -6  -6   5   20.28    0.96
  -5  -6   5    2.08    0.20
  -5  -6   5    2.16    0.21
  -5  -6   5    2.02    0.18
  -4  -6   5    0.86    0.14
  -4  -6   5    0.61    0.12
  -3  -6   5    0.31    0.12
  -3  -6   5    0.34    0.10
  -2  -6   5    1.52    0.16
  -2  -6   5    1.51    0.15
  -1  -6   5    0.72    0.14
  -1  -6   5    1.02    0.13
   0  -6   5    4.56    0.26
  -1   6  -5   21.44    0.95
   1  -6   5   22.04    0.99
   1  -6   5   19.58    0.97
  -2   6  -5   19.14    0.87
   2  -6   5   19.49    0.91
   2  -6   5   17.72    0.89
  -3   6  -5    2.14    0.19
   3  -6   5    2.27    0.23
  -4   6  -5    0.27    0.13
   4  -6   5    0.17    0.15
  -5   6  -5   28.84    1.41
   5  -6   5   32.62    1.45
  -6   6  -5   13.70    0.72
   6  -6   5   13.83    0.76
  -7   6  -5   24.33    1.22
   7  -6   5   26.38    1.26
  -8   6  -5   15.34    0.84
   8  -6   5   16.26    0.89
  -9   6  -5   12.13    0.74
   9  -6   5   13.33    0.79
  10  -6   5    8.79    0.67
  11  -6   5    0.59    0.32
 -13  -5   5    0.58    0.26
 -12  -5   5    1.35    0.27
 -11  -5   5    3.19    0.32
 -10  -5   5    4.51    0.38
  -9  -5   5   28.06    1.31
  -8  -5   5    1.73    0.20
  -7  -5   5   14.10    0.71
  -7  -5   5   15.67    0.73
  -6  -5   5   12.72    0.64
  -6  -5   5   14.38    0.66
  -5  -5   5   78.51    3.53
  -5  -5   5   83.98    3.54
  -4  -5   5    6.04    0.34
  -4  -5   5    6.84    0.36
  -3  -5   5    1.00    0.12
  -3  -5   5    1.04    0.13
  -2  -5   5   72.91    3.07
  -2  -5   5   68.20    3.06
  -1  -5   5   41.38    1.77
  -1  -5   5   38.86    1.76
   0   5  -5   38.52    1.74
   0  -5   5   39.56    1.77
   0  -5   5   42.20    1.77
  -1   5  -5   52.06    2.33
   1  -5   5   55.04    2.35
  -2   5  -5    2.02    0.16
   2  -5   5    1.93    0.19
   2  -5   5    1.71    0.16
  -3   5  -5    3.26    0.24
   3  -5   5    3.08    0.24
   3  -5   5    3.66    0.28
  -4   5  -5    4.96    0.32
   4  -5   5    5.31    0.36
   4  -5   5    4.81    0.31
  -5   5  -5    0.12    0.13
   5  -5   5    0.34    0.17
  -6   5  -5   21.39    1.04
   6  -5   5   22.08    1.07
  -7   5  -5    9.47    0.56
   7  -5   5    9.83    0.60
  -8   5  -5   32.11    1.57
   8  -5   5   35.01    1.60
  -9   5  -5    9.40    0.62
   9  -5   5   10.37    0.66
 -10   5  -5    7.98    0.59
  10  -5   5    8.48    0.62
 -11   5  -5    8.25    0.64
  11  -5   5    8.20    0.66
 -12   5  -5    0.77    0.31
  12  -5   5    0.41    0.31
 -13  -4   5    1.31    0.29
 -12  -4   5    0.37    0.22
 -11  -4   5    0.44    0.20
 -10  -4   5    2.00    0.24
  -9  -4   5    1.75    0.21
  -8  -4   5    8.09    0.44
  -8  -4   5    7.23    0.42
  -7  -4   5   24.02    1.04
  -7  -4   5   21.09    1.03
  -6  -4   5   39.64    1.69
  -6  -4   5   36.43    1.68
  -5  -4   5    4.11    0.25
  -5  -4   5    4.52    0.26
  -4  -4   5   30.08    1.29
  -4  -4   5   28.15    1.28
  -3  -4   5   96.02    4.02
  -3  -4   5   90.09    4.01
  -2  -4   5    1.43    0.12
  -2  -4   5    1.36    0.11
  -1  -4   5  100.04    4.42
  -1  -4   5  104.89    4.42
   0   4  -5  190.22    8.24
   0  -4   5  187.66    8.25
   0  -4   5  198.17    8.26
  -1   4  -5    8.57    0.42
   1  -4   5    9.22    0.45
  -2   4  -5  135.74    5.86
   2  -4   5  141.90    5.88
   2  -4   5  130.39    5.87
  -3   4  -5    0.19    0.09
   3  -4   5    0.39    0.12
   3  -4   5    0.40    0.10
  -4   4  -5    2.90    0.22
   4  -4   5    2.39    0.22
   4  -4   5    2.57    0.23
  -5   4  -5   25.36    1.18
   5  -4   5   25.89    1.20
  -6   4  -5    0.88    0.16
   6  -4   5    1.04    0.20
  -7   4  -5   11.30    0.63
   7  -4   5   11.89    0.66
  -8   4  -5    2.47    0.28
   8  -4   5    1.51    0.25
  -9   4  -5    6.12    0.48
   9  -4   5    6.44    0.50
 -10   4  -5    6.50    0.53
  10  -4   5    6.72    0.54
 -11   4  -5   10.38    0.68
  11  -4   5    9.62    0.69
 -12   4  -5   10.27    0.73
  12  -4   5   11.33    0.77
 -13   4  -5    3.03    0.43
  13  -4   5    3.73    0.48
 -14  -3   5    0.47    0.26
 -13  -3   5    6.39    0.52
 -12  -3   5   11.88    0.69
 -11  -3   5    0.49    0.19
 -10  -3   5   26.43    1.25
  -9  -3   5   10.04    0.55
  -8  -3   5    0.13    0.13
  -8  -3   5    0.04    0.03
  -7  -3   5    1.29    0.15
  -7  -3   5    0.98    0.12
  -6  -3   5    0.46    0.11
  -6  -3   5    0.41    0.09
  -5  -3   5   82.49    3.62
  -5  -3   5   84.95    3.62
  -4  -3   5   43.84    1.85
  -4  -3   5   41.24    1.85
  -3  -3   5    1.37    0.11
  -3  -3   5    1.36    0.11
  -2  -3   5  169.44    7.50
  -2  -3   5  180.00    7.51
  -1  -3   5   50.29    2.13
  -1  -3   5   48.23    2.13
   0  -3   5   42.64    1.91
   0  -3   5   45.27    1.91
  -1   3  -5  139.14    6.05
   1  -3   5  146.51    6.12
   1  -3   5  136.67    6.05
  -2   3  -5    5.79    0.31
   2  -3   5    5.65    0.31
   2  -3   5    6.32    0.33
  -3   3  -5   72.68    3.13
   3  -3   5   68.98    3.13
   3  -3   5   73.98    3.14
  -4   3  -5   65.30    2.77
   4  -3   5   66.63    2.79
   4  -3   5   58.23    2.77
  -5   3  -5   30.41    1.38
   5  -3   5   30.17    1.39
  -6   3  -5   34.62    1.60
   6  -3   5   36.17    1.62
  -7   3  -5    1.77    0.22
   7  -3   5    1.84    0.23
  -8   3  -5   15.38    0.81
   8  -3   5   16.04    0.82
  -9   3  -5   10.94    0.65
   9  -3   5   11.19    0.66
 -10   3  -5    0.91    0.24
  10  -3   5    0.88    0.24
 -11   3  -5   15.31    0.88
  11  -3   5   15.96    0.90
 -12   3  -5    0.82    0.30
  12  -3   5    1.50    0.34
 -13   3  -5    4.35    0.47
  13  -3   5    5.22    0.53
 -14   3  -5    5.83    0.55
  14  -3   5    6.27    0.59
 -14  -2   5    0.72    0.27
 -13  -2   5   13.91    0.80
 -12  -2   5    5.47    0.45
 -11  -2   5   48.69    2.21
 -10  -2   5   -0.07    0.15
   9   2  -5   20.24    0.98
  -9  -2   5   22.04    1.01
   8   2  -5   15.79    0.72
  -8  -2   5   16.02    0.75
  -8  -2   5   14.18    0.73
   7   2  -5    3.04    0.21
  -7  -2   5    3.25    0.24
   6   2  -5   27.51    1.23
  -6  -2   5   27.26    1.25
  -6  -2   5   29.36    1.26
   5   2  -5  116.46    5.31
  -5  -2   5  131.38    5.33
  -5  -2   5  123.53    5.33
  -4  -2   5    0.03    0.06
  -4  -2   5    0.13    0.06
  -3  -2   5  152.54    6.52
  -3  -2   5  151.07    6.52
   0  -2   5    1.27    0.10
   0  -2   5    1.28    0.11
  -1   2  -5   23.75    1.05
   1  -2   5   24.32    1.06
   1  -2   5   23.76    1.05
  -2   2  -5   27.63    1.21
   2  -2   5   26.32    1.21
   2  -2   5   28.03    1.21
  -3   2  -5   10.09    0.48
   3  -2   5   10.11    0.49
   3  -2   5    9.24    0.47
  -4   2  -5   83.60    3.54
   4  -2   5   84.45    3.55
   4  -2   5   76.19    3.54
  -5   2  -5  120.96    5.25
   5  -2   5  121.03    5.25
  -6   2  -5   41.84    1.86
   6  -2   5   40.91    1.87
  -7   2  -5   64.58    2.87
   7  -2   5   65.24    2.88
  -8   2  -5    8.00    0.49
   8  -2   5    7.44    0.50
  -9   2  -5    9.37    0.57
   9  -2   5    8.83    0.57
 -10   2  -5   37.32    1.77
  10  -2   5   38.62    1.79
 -11   2  -5   18.76    1.00
  11  -2   5   18.40    1.00
 -12   2  -5   17.96    0.99
  12  -2   5   17.87    1.00
 -13   2  -5    7.81    0.64
  13  -2   5    7.38    0.64
 -14   2  -5    1.02    0.37
  14  -2   5    0.35    0.33
 -14  -1   5    0.49    0.28
 -13  -1   5    2.47    0.34
 -12  -1   5   24.66    1.23
 -11  -1   5    0.56    0.19
  10   1  -5   34.94    1.62
 -10  -1   5   36.30    1.64
   9   1  -5   14.36    0.69
  -9  -1   5   14.93    0.71
  -9  -1   5   12.52    0.69
   8   1  -5    3.88    0.26
  -8  -1   5    3.29    0.25
  -8  -1   5    3.49    0.29
   7   1  -5    5.64    0.31
  -7  -1   5    5.01    0.32
  -7  -1   5    5.73    0.34
   6   1  -5   58.22    2.49
  -6  -1   5   59.40    2.50
  -6  -1   5   53.63    2.49
   5   1  -5    6.60    0.33
  -5  -1   5    7.04    0.35
   4   1  -5   39.75    1.73
  -4  -1   5   39.00    1.74
  -4  -1   5   41.21    1.75
  -3  -1   5    1.53    0.12
  -3  -1   5    1.49    0.12
  -2  -1   5    1.12    0.09
  -2  -1   5    1.09    0.09
  -1  -1   5   31.15    1.37
  -1  -1   5   32.07    1.37
   0   1  -5   14.25    0.64
   0   1  -5   14.17    0.64
   0   1  -5   14.28    0.64
   0  -1   5   14.88    0.65
   0  -1   5   15.34    0.65
  -1   1  -5   14.32    0.66
   1  -1   5   15.38    0.67
  -2   1  -5    0.07    0.08
   2  -1   5    0.06    0.09
   2  -1   5    0.00    0.07
  -3   1  -5   25.30    1.07
   3  -1   5   21.82    1.06
   3  -1   5   23.70    1.07
  -4   1  -5   12.47    0.60
   4  -1   5   11.74    0.60
   4  -1   5   13.22    0.62
  -5   1  -5   52.04    2.27
   5  -1   5   50.54    2.27
  -6   1  -5   16.57    0.80
  -7   1  -5    2.15    0.21
   7  -1   5    1.88    0.22
  -8   1  -5    0.26    0.16
   8  -1   5    0.22    0.16
  -9   1  -5   27.05    1.30
   9  -1   5   27.64    1.31
 -10   1  -5   14.34    0.81
  10  -1   5   15.73    0.83
 -11   1  -5    6.84    0.54
  11  -1   5    7.26    0.54
 -12   1  -5    8.79    0.61
  12  -1   5    7.83    0.61
 -13   1  -5    0.28    0.28
  13  -1   5    0.36    0.28
 -14   1  -5    0.04    0.31
  14  -1   5   -0.23    0.29
 -14   0   5    0.34    0.30
 -13   0   5    0.45    0.26
 -12   0   5   -0.17    0.21
  11   0  -5   -0.07    0.15
 -11   0   5    0.06    0.20
  10   0  -5    0.03    0.14
 -10   0   5   -0.06    0.17
   9   0  -5    0.06    0.13
  -9   0   5    0.16    0.16
   8   0  -5    0.03    0.12
  -8   0   5    0.32    0.15
  -8   0   5   -0.08    0.09
   7   0  -5    0.10    0.11
  -7   0   5    0.02    0.13
  -7   0   5    0.09    0.10
   6   0  -5    0.07    0.09
  -6   0   5    0.00    0.11
  -6   0   5   -0.05    0.08
   5   0  -5    0.19    0.09
  -5   0   5    0.24    0.11
  -5   0   5    0.26    0.09
   4   0  -5    0.11    0.08
  -4   0   5    0.03    0.09
  -4   0   5    0.08    0.08
   3   0  -5    0.12    0.07
  -3   0   5    0.05    0.08
  -3   0   5   -0.05    0.04
   2   0  -5    0.01    0.06
  -2   0   5   -0.08    0.01
  -2   0   5   -0.03    0.07
   1   0  -5    0.11    0.06
  -1   0   5    0.04    0.02
  -1   0   5   -0.01    0.07
   0   0  -5   -0.09    0.07
   0   0   5   -0.20    0.07
   0   0   5   -0.19    0.06
  -1   0  -5   -0.13    0.07
   1   0   5   -0.02    0.07
   1   0   5    0.00    0.07
  -2   0  -5    0.18    0.09
   2   0   5   -0.05    0.08
   2   0   5    0.14    0.08
  -3   0  -5    0.12    0.10
   3   0   5   -0.07    0.09
   3   0   5    0.13    0.09
  -4   0  -5    0.24    0.12
   4   0   5    0.13    0.11
  -5   0  -5    0.22    0.13
   5   0   5    0.02    0.11
  -6   0  -5    0.08    0.14
   6   0   5    0.07    0.14
  -7   0  -5    0.05    0.14
   7   0   5    0.00    0.14
  -8   0  -5    0.05    0.16
   8   0   5   -0.05    0.14
  -9   0  -5    0.19    0.18
   9   0   5   -0.03    0.16
 -10   0  -5    0.00    0.18
  10   0   5    0.12    0.19
 -11   0  -5   -0.04    0.23
  11   0   5    0.22    0.22
 -12   0  -5    0.16    0.25
  12   0   5   -0.05    0.23
 -13   0  -5   -0.39    0.27
  13   0   5   -0.22    0.25
 -14   0  -5   -0.50    0.28
  14   0   5   -0.44    0.27
 -14   1   5    0.41    0.31
 -13   1   5    2.60    0.36
 -12   1   5   22.93    1.17
  11  -1  -5    0.60    0.20
 -11   1   5    0.87    0.23
  10  -1  -5   37.63    1.78
 -10   1   5   39.97    1.80
   9  -1  -5   15.84    0.80
  -9   1   5   15.83    0.81
   8  -1  -5    3.61    0.30
  -8   1   5    3.83    0.32
   7  -1  -5    5.62    0.36
  -7   1   5    6.51    0.39
   6  -1  -5   59.66    2.51
  -6   1   5   51.17    2.50
  -6   1   5   59.99    2.51
   5  -1  -5    6.63    0.37
  -5   1   5    7.02    0.38
  -5   1   5    6.21    0.36
   4  -1  -5   44.47    1.85
  -4   1   5   42.64    1.85
  -4   1   5   38.46    1.84
   3  -1  -5    1.28    0.13
  -3   1   5    1.38    0.13
  -3   1   5    1.38    0.13
   2  -1  -5    1.14    0.13
  -2   1   5    1.20    0.12
  -2   1   5    1.10    0.12
   1  -1  -5   30.92    1.36
  -1   1   5   29.40    1.35
  -1   1   5   31.86    1.36
   0  -1  -5   15.05    0.70
   0   1   5   15.54    0.69
   0   1   5   14.62    0.69
  -1  -1  -5   14.27    0.67
   1   1   5   14.78    0.66
   1   1   5   13.61    0.66
  -2  -1  -5    0.13    0.09
   2   1   5   -0.04    0.09
   2   1   5    0.22    0.10
  -3  -1  -5   23.23    1.04
   3   1   5   22.58    1.05
  -4  -1  -5   13.19    0.63
   4   1   5   12.38    0.63
  -5  -1  -5   51.04    2.30
   5   1   5   52.86    2.31
  -6  -1  -5   16.91    0.81
   6   1   5   16.05    0.81
  -7  -1  -5    1.92    0.21
   7   1   5    2.13    0.23
  -8  -1  -5    0.43    0.17
   8   1   5    0.34    0.18
  -9  -1  -5   27.51    1.31
   9   1   5   27.39    1.31
 -10  -1  -5   14.38    0.79
  10   1   5   14.88    0.80
 -11  -1  -5    7.25    0.53
  11   1   5    6.71    0.52
 -12  -1  -5    7.00    0.58
  12   1   5    7.73    0.57
 -13  -1  -5   -0.22    0.28
  13   1   5    0.11    0.24
 -14  -1  -5   -0.38    0.29
  14   1   5   -0.12    0.28
 -14   2   5    0.77    0.33
 -13   2   5   15.55    0.92
  12  -2  -5    5.60    0.49
 -12   2   5    6.17    0.53
  11  -2  -5   52.15    2.44
 -11   2   5   55.31    2.46
  10  -2  -5    0.38    0.18
 -10   2   5    0.05    0.20
   9  -2  -5   21.39    1.05
  -9   2   5   21.40    1.05
   8  -2  -5   16.93    0.87
  -8   2   5   18.51    0.89
   7  -2  -5    3.63    0.30
  -7   2   5    3.46    0.29
   6  -2  -5   30.50    1.36
  -6   2   5   28.77    1.36
   5  -2  -5  132.23    5.72
  -5   2   5  131.81    5.72
   4  -2  -5    0.03    0.11
  -4   2   5    0.19    0.12
   3  -2  -5  150.36    6.38
  -3   2   5  138.11    6.37
  -3   2   5  154.60    6.38
   2  -2  -5   17.32    0.80
  -2   2   5   17.24    0.80
  -2   2   5   16.92    0.80
   1  -2  -5   13.04    0.60
  -1   2   5   12.55    0.60
  -1   2   5   11.27    0.59
   0  -2  -5    1.11    0.14
   0   2   5    1.17    0.13
   0   2   5    1.00    0.14
  -1  -2  -5   26.49    1.16
  -1  -2  -5   25.35    1.16
   1   2   5   25.16    1.16
  -2  -2  -5   29.33    1.35
   2   2   5   30.41    1.35
   3   2   5   10.41    0.53
  -4  -2  -5   84.31    3.67
   4   2   5   83.64    3.67
  -5  -2  -5  120.57    5.24
   5   2   5  120.82    5.25
  -6  -2  -5   42.21    1.89
   6   2   5   41.59    1.89
  -7  -2  -5   63.23    2.88
   7   2   5   66.58    2.88
  -8  -2  -5    7.36    0.50
   8   2   5    8.73    0.50
  -9  -2  -5    8.83    0.54
   9   2   5    8.34    0.53
 -10  -2  -5   37.24    1.70
  10   2   5   34.67    1.68
 -11  -2  -5   18.06    0.96
  11   2   5   17.47    0.95
 -12  -2  -5   16.84    0.93
  12   2   5   15.83    0.90
 -13  -2  -5    7.07    0.58
  13   2   5    6.76    0.56
 -14  -2  -5    0.33    0.33
 -14   3   5    0.58    0.35
 -13   3   5    6.41    0.56
  12  -3  -5   11.37    0.76
 -12   3   5   14.35    0.82
  11  -3  -5    0.82    0.25
 -11   3   5    1.16    0.29
  10  -3  -5   26.31    1.31
 -10   3   5   27.66    1.33
   9  -3  -5   11.00    0.64
  -9   3   5   10.92    0.65
   8  -3  -5    0.04    0.17
  -8   3   5    0.17    0.18
   7  -3  -5    1.28    0.21
  -7   3   5    1.35    0.21
   6  -3  -5    0.68    0.17
  -6   3   5    0.73    0.18
   5  -3  -5   88.63    3.82
  -5   3   5   85.91    3.82
   4  -3  -5   43.63    1.96
  -4   3   5   44.35    1.97
   3  -3  -5    1.31    0.17
  -3   3   5    1.17    0.16
   2  -3  -5  178.57    7.79
  -2   3   5  182.10    7.79
   1  -3  -5   48.17    2.16
  -1   3   5   49.47    2.16
   0  -3  -5   42.46    1.90
   0   3   5   42.82    1.89
  -1  -3  -5  146.24    6.26
   1   3   5  143.09    6.26
  -2  -3  -5    6.70    0.40
   2   3   5    6.65    0.39
  -3  -3  -5   72.00    3.19
   3   3   5   73.06    3.18
  -4  -3  -5   64.49    2.86
   4   3   5   65.19    2.86
  -5  -3  -5   30.66    1.41
   5   3   5   30.68    1.41
  -6  -3  -5   35.85    1.62
   6   3   5   34.67    1.61
  -7  -3  -5    1.59    0.23
   7   3   5    1.71    0.21
  -8  -3  -5   14.75    0.79
   8   3   5   15.07    0.78
  -9  -3  -5   10.84    0.64
   9   3   5   10.33    0.62
 -10  -3  -5    1.13    0.25
  10   3   5    0.67    0.21
 -11  -3  -5   14.66    0.84
  11   3   5   13.84    0.80
 -12  -3  -5    0.48    0.27
  12   3   5    0.75    0.25
 -13  -3  -5    4.39    0.46
 -14  -3  -5    5.43    0.54
 -13   4   5    1.31    0.36
  12  -4  -5    0.26    0.27
 -12   4   5    0.47    0.32
  11  -4  -5    0.53    0.26
 -11   4   5    0.99    0.29
  10  -4  -5    1.47    0.27
 -10   4   5    1.68    0.30
   9  -4  -5    1.99    0.29
  -9   4   5    2.20    0.32
   8  -4  -5    8.93    0.57
  -8   4   5    8.96    0.58
   7  -4  -5   26.57    1.26
  -7   4   5   26.06    1.26
   6  -4  -5   40.87    1.91
  -6   4   5   42.87    1.91
   5  -4  -5    4.55    0.36
  -5   4   5    4.29    0.35
   4  -4  -5   31.43    1.45
  -4   4   5   31.26    1.44
   3  -4  -5  100.20    4.31
  -3   4   5   97.13    4.31
   2  -4  -5    1.09    0.17
  -2   4   5    1.31    0.18
   1  -4  -5  102.85    4.54
  -1   4   5  105.34    4.53
   0  -4  -5  203.56    8.74
   0   4   5  200.99    8.73
  -1  -4  -5    8.58    0.48
   1   4   5    8.26    0.47
  -2  -4  -5  137.26    6.01
  -2  -4  -5  138.33    6.02
   2   4   5  139.84    6.01
  -3  -4  -5    0.33    0.16
   3   4   5    0.35    0.14
  -4  -4  -5    3.23    0.30
   4   4   5    3.51    0.30
  -5  -4  -5   27.29    1.27
   5   4   5   26.65    1.26
  -6  -4  -5    1.08    0.21
   6   4   5    0.83    0.17
  -7  -4  -5   11.18    0.66
   7   4   5   12.56    0.65
  -8  -4  -5    1.93    0.26
   8   4   5    1.84    0.24
  -9  -4  -5    6.02    0.48
   9   4   5    5.76    0.44
 -10  -4  -5    6.04    0.50
  10   4   5    5.58    0.46
 -11  -4  -5    9.01    0.63
  11   4   5    8.56    0.59
 -12  -4  -5   10.27    0.72
 -13  -4  -5    3.26    0.43
 -13   5   5    1.89    0.41
  12  -5  -5    1.72    0.36
 -12   5   5    1.72    0.37
  11  -5  -5    3.59    0.41
 -11   5   5    4.78    0.48
  10  -5  -5    5.25    0.47
 -10   5   5    5.85    0.50
   9  -5  -5   29.83    1.47
  -9   5   5   30.28    1.48
   8  -5  -5    1.94    0.27
  -8   5   5    1.99    0.30
   7  -5  -5   16.53    0.91
  -7   5   5   18.39    0.92
   6  -5  -5   14.99    0.81
  -6   5   5   15.36    0.81
   5  -5  -5   89.03    3.96
  -5   5   5   90.33    3.95
   4  -5  -5    7.12    0.46
  -4   5   5    7.08    0.45
   3  -5  -5    0.92    0.18
  -3   5   5    0.86    0.17
   2  -5  -5   74.73    3.27
  -2   5   5   73.38    3.27
   1  -5  -5   41.76    1.90
  -1   5   5   41.91    1.89
   0  -5  -5   40.58    1.87
   0   5   5   41.86    1.86
  -1  -5  -5   54.98    2.46
   1   5   5   54.91    2.44
  -2  -5  -5    1.40    0.21
   2   5   5    2.29    0.22
  -3  -5  -5    4.16    0.34
  -3  -5  -5    3.79    0.33
   3   5   5    3.80    0.32
  -4  -5  -5    6.00    0.43
   4   5   5    5.67    0.39
  -5  -5  -5   -0.02    0.17
   5   5   5    0.30    0.16
  -6  -5  -5   21.58    1.08
   6   5   5   21.42    1.05
  -7  -5  -5    9.18    0.59
   7   5   5    9.25    0.56
  -8  -5  -5   31.60    1.51
   8   5   5   30.98    1.48
  -9  -5  -5   10.17    0.63
   9   5   5    8.65    0.59
 -10  -5  -5    7.41    0.57
 -11  -5  -5    9.07    0.67
 -12  -5  -5    0.37    0.30
  12  -6  -5    6.15    0.59
 -12   6   5    7.05    0.62
  11  -6  -5    4.22    0.46
 -11   6   5    4.89    0.50
  10  -6  -5   16.49    0.95
 -10   6   5   16.23    0.96
   9  -6  -5    4.33    0.44
  -9   6   5    5.25    0.47
   8  -6  -5   51.33    2.36
  -8   6   5   50.32    2.35
   7  -6  -5    2.98    0.36
  -7   6   5    2.71    0.33
   6  -6  -5   22.12    1.10
  -6   6   5   20.95    1.08
   5  -6  -5    2.65    0.29
  -5   6   5    1.83    0.27
   4  -6  -5    0.65    0.20
  -4   6   5    0.69    0.21
   3  -6  -5    0.46    0.19
  -3   6   5    0.18    0.16
   2  -6  -5    1.50    0.24
  -2   6   5    1.19    0.20
   1  -6  -5    1.52    0.24
  -1   6   5    1.07    0.20
   0  -6  -5   14.84    0.77
   0   6   5   14.10    0.75
  -1  -6  -5   22.24    1.11
   1   6   5   23.24    1.09
  -2  -6  -5   21.36    1.05
   2   6   5   20.94    1.02
  -3  -6  -5    2.93    0.30
   3   6   5    2.09    0.25
  -4  -6  -5    0.33    0.20
  -4  -6  -5    0.16    0.20
   4   6   5    0.26    0.17
  -5  -6  -5   32.50    1.53
  -5  -6  -5   31.96    1.53
   5   6   5   31.48    1.50
  -6  -6  -5   14.14    0.78
   6   6   5   13.77    0.74
  -7  -6  -5   24.84    1.22
   7   6   5   23.11    1.17
  -8  -6  -5   16.76    0.88
   8   6   5   14.15    0.81
  -9  -6  -5   12.78    0.80
 -10  -6  -5    8.12    0.64
 -11  -6  -5    0.30    0.31
  10  -7  -5    2.00    0.39
 -10   7   5    2.69    0.40
   9  -7  -5    0.68    0.33
  -9   7   5    0.94    0.33
   8  -7  -5   -0.25    0.26
  -8   7   5    0.09    0.27
   7  -7  -5    0.39    0.26
  -7   7   5    0.18    0.25
   6  -7  -5    7.16    0.56
  -6   7   5    6.68    0.54
   5  -7  -5    2.67    0.35
  -5   7   5    3.53    0.36
   4  -7  -5   11.82    0.70
  -4   7   5   11.08    0.68
   3  -7  -5    3.32    0.34
  -3   7   5    3.35    0.32
   2  -7  -5    1.93    0.27
  -2   7   5    2.16    0.26
   1  -7  -5    1.15    0.24
  -1   7   5    0.91    0.22
   0  -7  -5    1.82    0.28
   0   7   5    1.86    0.25
  -1  -7  -5    0.47    0.22
   1   7   5    0.92    0.21
  -2  -7  -5    0.05    0.19
   2   7   5    0.18    0.17
  -3  -7  -5    0.77    0.22
   3   7   5    0.74    0.19
  -4  -7  -5    1.25    0.25
   4   7   5    1.12    0.22
  -5  -7  -5   19.07    0.98
   5   7   5   17.16    0.92
  -6  -7  -5    4.07    0.41
  -6  -7  -5    4.05    0.41
   6   7   5    3.52    0.34
  -7  -7  -5    0.83    0.28
  -7  -7  -5    0.81    0.28
  -8  -7  -5    0.64    0.29
  -9  -7  -5    7.98    0.67
 -10  -7  -5    1.01    0.35
   9  -8  -5    0.01    0.32
  -9   8   5    0.14    0.32
   8  -8  -5    6.26    0.57
  -8   8   5    4.72    0.49
   7  -8  -5    1.23    0.35
  -7   8   5    0.81    0.30
   6  -8  -5    2.63    0.37
  -6   8   5    2.78    0.38
   5  -8  -5    9.49    0.66
  -5   8   5    8.28    0.61
   4  -8  -5    0.23    0.24
  -4   8   5    0.58    0.25
   3  -8  -5    0.23    0.23
  -3   8   5    0.30    0.22
   2  -8  -5    3.27    0.37
  -2   8   5    2.35    0.29
   1  -8  -5    0.81    0.26
  -1   8   5    1.07    0.23
   0  -8  -5   10.21    0.65
   0   8   5    9.53    0.60
  -1  -8  -5    0.07    0.22
   1   8   5    0.20    0.19
  -2  -8  -5    1.08    0.26
   2   8   5    1.51    0.24
  -3  -8  -5    2.86    0.36
   3   8   5    2.76    0.31
  -4  -8  -5    2.56    0.34
  -5  -8  -5   -0.31    0.24
  -6  -8  -5    1.46    0.33
  -7  -8  -5    7.24    0.63
  -8  -8  -5   11.50    0.79
  -8  -8  -5   11.33    0.77
  -9  -8  -5    0.99    0.34
  -9  -8  -5    1.55    0.36
   7  -9  -5    8.21    0.71
   6  -9  -5    0.68    0.33
   5  -9  -5   -0.15    0.26
  -5   9   5   -0.10    0.28
   4  -9  -5    0.12    0.27
  -4   9   5    0.24    0.28
   3  -9  -5    0.96    0.28
   2  -9  -5    2.17    0.34
   1  -9  -5    3.98    0.41
   0  -9  -5    0.35    0.26
  -1  -9  -5    1.18    0.31
  -2  -9  -5    0.66    0.27
  -3  -9  -5    3.49    0.40
  -4  -9  -5   -0.09    0.27
  -5  -9  -5    0.57    0.30
  -6  -9  -5    8.57    0.69
  -7  -9  -5    3.59    0.46
   3 -10  -5    1.90    0.38
   2 -10  -5    1.46    0.36
   1 -10  -5    8.82    0.70
   0 -10  -5   12.94    0.84
  -1 -10  -5    2.50    0.40
  -2 -10  -5    2.90    0.40
  -3 -10  -5    0.65    0.33
  -2 -10   6    0.49    0.22
  -1 -10   6    5.14    0.42
   0 -10   6    0.03    0.21
   1 -10   6   12.41    0.74
   2 -10   6    0.19    0.23
  -6  -9   6    1.73    0.25
  -5  -9   6    1.97    0.25
  -4  -9   6    0.10    0.18
  -3  -9   6    4.55    0.39
  -2  -9   6   17.18    0.87
  -1  -9   6    1.97    0.26
   0  -9   6   18.61    0.95
   1  -9   6    1.52    0.26
   2  -9   6    7.53    0.53
   3  -9   6    0.92    0.25
   4  -9   6   -0.14    0.21
   5  -9   6    4.54    0.43
   6  -9   6    3.30    0.41
  -9  -8   6   11.29    0.67
  -9  -8   6   11.20    0.66
  -8  -8   6    6.59    0.48
  -7  -8   6    0.38    0.20
  -6  -8   6   23.85    1.14
  -5  -8   6    4.85    0.37
  -4  -8   6   12.79    0.67
  -3  -8   6    0.20    0.15
  -2  -8   6    8.52    0.50
  -1  -8   6    2.41    0.25
   0  -8   6    3.10    0.29
   1  -8   6   21.30    1.04
   2  -8   6   35.75    1.66
   3  -8   6    6.16    0.46
   4  -8   6   38.00    1.78
   5  -8   6    0.78    0.24
   6  -8   6   22.55    1.17
   7  -8   6   28.10    1.42
   8  -8   6    5.01    0.49
 -10  -7   6    8.44    0.57
  -9  -7   6    0.55    0.22
  -8  -7   6   10.54    0.61
  -7  -7   6    3.60    0.30
  -7  -7   6    3.38    0.29
  -6  -7   6    2.52    0.24
  -5  -7   6   11.99    0.62
  -4  -7   6    0.03    0.13
  -3  -7   6   43.23    1.93
  -2  -7   6   11.18    0.57
  -1  -7   6   12.04    0.61
   0  -7   6    6.55    0.41
   1  -7   6   14.07    0.72
   2  -7   6    0.12    0.16
   3  -7   6   28.45    1.34
   4  -7   6    1.72    0.24
   5  -7   6   60.07    2.71
   6  -7   6    2.54    0.31
   7  -7   6   10.87    0.69
   8  -7   6   19.99    1.08
   9  -7   6    3.23    0.42
  10  -7   6    3.01    0.42
 -11  -6   6    2.23    0.29
 -10  -6   6    9.34    0.57
  -9  -6   6    2.09    0.24
  -8  -6   6    0.77    0.19
  -7  -6   6    5.76    0.38
  -6  -6   6   17.98    0.86
  -5  -6   6    0.28    0.13
  -5  -6   6    0.19    0.13
  -5  -6   6    0.30    0.10
  -4  -6   6   41.56    1.95
  -4  -6   6   46.89    1.96
  -3  -6   6    1.73    0.15
  -3  -6   6    1.55    0.16
  -2  -6   6   22.96    1.09
  -2  -6   6   25.37    1.10
  -1  -6   6   27.42    1.20
  -1  -6   6   25.45    1.19
   0  -6   6    0.86    0.15
   0  -6   6    0.90    0.12
   1  -6   6    0.01    0.02
   1  -6   6    0.04    0.12
  -2   6  -6   37.71    1.67
   2  -6   6   35.77    1.69
   2  -6   6   39.74    1.71
  -3   6  -6    8.14    0.44
   3  -6   6    8.38    0.48
  -4   6  -6    2.76    0.24
   4  -6   6    2.11    0.25
  -5   6  -6    1.04    0.17
   5  -6   6    1.08    0.21
  -6   6  -6   19.77    0.98
   6  -6   6   20.86    1.03
  -7   6  -6    0.92    0.21
   7  -6   6    1.18    0.26
   8  -6   6    3.65    0.39
   9  -6   6    1.50    0.31
  10  -6   6    6.95    0.61
  11  -6   6    2.15    0.40
 -12  -5   6    0.20    0.22
 -11  -5   6    1.64    0.26
 -10  -5   6    0.93    0.21
  -9  -5   6    0.05    0.15
  -8  -5   6    8.48    0.47
  -7  -5   6    7.13    0.40
  -7  -5   6    6.88    0.38
  -6  -5   6    0.16    0.10
  -6  -5   6    0.20    0.09
  -5  -5   6   21.07    0.93
  -5  -5   6   19.67    0.92
  -4  -5   6    1.68    0.15
  -4  -5   6    1.73    0.15
  -4  -5   6    1.59    0.14
  -3  -5   6   13.31    0.60
  -3  -5   6   12.36    0.60
  -2  -5   6   35.35    1.59
  -2  -5   6   36.94    1.59
  -1  -5   6    1.35    0.13
  -1  -5   6    1.65    0.15
   0  -5   6   19.51    0.85
   0  -5   6   17.33    0.84
  -1   5  -6   40.80    1.78
   1  -5   6   38.05    1.79
   1  -5   6   43.20    1.81
  -2   5  -6    0.55    0.10
   2  -5   6    0.54    0.14
   2  -5   6    0.37    0.10
  -3   5  -6    1.30    0.14
   3  -5   6    1.00    0.14
   3  -5   6    1.23    0.17
  -4   5  -6    0.12    0.10
   4  -5   6    0.11    0.10
   4  -5   6    0.42    0.15
  -5   5  -6    0.12    0.12
   5  -5   6   -0.06    0.15
  -6   5  -6    4.33    0.34
   6  -5   6    4.25    0.38
  -7   5  -6    0.89    0.19
   7  -5   6    0.73    0.22
  -8   5  -6    3.71    0.34
   8  -5   6    4.09    0.36
  -9   5  -6    1.42    0.27
   9  -5   6    1.57    0.30
 -10   5  -6    0.58    0.25
  10  -5   6    0.99    0.30
 -11   5  -6    1.11    0.31
  11  -5   6    1.07    0.32
  12  -5   6    1.55    0.37
 -13  -4   6    5.73    0.50
 -12  -4   6    4.99    0.44
 -11  -4   6    0.05    0.18
 -10  -4   6    3.27    0.29
  -9  -4   6    0.32    0.15
  -8  -4   6    0.34    0.11
  -8  -4   6    0.44    0.13
  -7  -4   6    4.31    0.29
  -7  -4   6    4.17    0.26
  -6  -4   6    0.92    0.13
  -6  -4   6    0.91    0.11
  -5  -4   6    0.34    0.08
  -5  -4   6    0.43    0.10
  -4  -4   6    6.11    0.30
  -4  -4   6    5.96    0.30
  -3  -4   6    0.83    0.09
  -3  -4   6    0.93    0.10
  -2  -4   6    8.13    0.38
  -2  -4   6    7.95    0.38
  -1  -4   6   94.88    4.02
  -1  -4   6   91.66    4.02
   0  -4   6    6.89    0.34
   0  -4   6    6.28    0.33
  -1   4  -6   29.10    1.30
   1  -4   6   31.33    1.32
   1  -4   6   28.75    1.32
  -2   4  -6    2.63    0.19
   2  -4   6    2.51    0.19
   2  -4   6    2.59    0.22
  -3   4  -6    1.76    0.15
   3  -4   6    1.54    0.15
   3  -4   6    1.61    0.18
  -4   4  -6   25.50    1.09
   4  -4   6   21.97    1.09
   4  -4   6   23.53    1.10
  -5   4  -6    0.12    0.12
   5  -4   6    0.14    0.14
  -6   4  -6    0.87    0.17
   6  -4   6    1.19    0.20
  -7   4  -6    3.81    0.33
   7  -4   6    3.16    0.31
  -8   4  -6    1.62    0.24
   8  -4   6    1.85    0.28
  -9   4  -6    5.03    0.41
   9  -4   6    4.69    0.42
 -10   4  -6    1.33    0.27
  10  -4   6    1.13    0.27
 -11   4  -6    1.55    0.31
  11  -4   6    1.45    0.34
 -12   4  -6    3.36    0.41
  12  -4   6    3.87    0.44
 -13   4  -6    0.17    0.31
  13  -4   6   -0.07    0.30
 -14  -3   6    5.82    0.49
 -13  -3   6    0.74    0.25
 -12  -3   6    0.48    0.20
 -11  -3   6    0.00    0.18
 -10  -3   6    0.18    0.16
  -9  -3   6    8.20    0.47
  -8  -3   6    6.46    0.37
  -8  -3   6    7.65    0.41
  -7  -3   6    1.07    0.14
  -7  -3   6    0.89    0.12
  -6  -3   6    1.87    0.16
  -6  -3   6    2.30    0.18
  -5  -3   6   46.80    1.98
  -5  -3   6   44.25    1.98
  -4  -3   6   13.21    0.61
  -4  -3   6   13.85    0.61
  -3  -3   6  205.17    8.67
  -3  -3   6  198.56    8.67
  -1  -3   6   25.85    1.10
  -1  -3   6   24.52    1.09
   0  -3   6    3.27    0.19
   0  -3   6    2.92    0.17
  -1   3  -6    6.08    0.29
   1  -3   6    5.66    0.30
   1  -3   6    6.21    0.31
  -2   3  -6   29.77    1.30
   2  -3   6   27.55    1.31
   2  -3   6   31.39    1.32
  -3   3  -6   14.19    0.64
   3  -3   6   13.34    0.65
   3  -3   6   13.14    0.64
  -4   3  -6    3.47    0.25
   4  -3   6    4.21    0.28
   4  -3   6    3.25    0.24
  -5   3  -6    0.00    0.11
   5  -3   6    0.44    0.14
  -6   3  -6    7.48    0.44
   6  -3   6    7.47    0.46
  -7   3  -6   16.64    0.82
   7  -3   6   15.97    0.83
  -8   3  -6   19.55    0.98
   8  -3   6   20.15    1.00
  -9   3  -6    0.12    0.20
   9  -3   6   -0.26    0.18
 -10   3  -6   12.62    0.75
  10  -3   6   13.27    0.77
 -11   3  -6    5.19    0.46
  11  -3   6    5.35    0.47
 -12   3  -6    1.06    0.30
  12  -3   6    0.78    0.31
 -13   3  -6   11.72    0.80
  13  -3   6   11.85    0.82
 -14  -2   6    0.03    0.25
 -13  -2   6    0.18    0.23
 -12  -2   6    2.74    0.31
 -11  -2   6    1.17    0.22
 -10  -2   6    3.20    0.29
   9   2  -6    1.89    0.19
  -9  -2   6    1.81    0.20
   8   2  -6    0.07    0.09
  -8  -2   6    0.05    0.07
  -8  -2   6    0.10    0.12
   7   2  -6    4.65    0.27
  -7  -2   6    5.77    0.32
  -7  -2   6    5.20    0.29
  -6  -2   6   15.64    0.76
  -6  -2   6   17.88    0.77
  -5  -2   6   11.36    0.51
  -5  -2   6   10.46    0.51
  -4  -2   6   56.75    2.39
  -4  -2   6   53.67    2.39
  -3  -2   6  168.61    7.43
  -3  -2   6  177.49    7.42
   0  -2   6    0.25    0.06
   0  -2   6    0.25    0.06
  -1   2  -6   31.78    1.41
   1  -2   6   32.23    1.42
   1  -2   6   33.08    1.42
  -2   2  -6   73.03    3.11
   2  -2   6   73.95    3.12
   2  -2   6   68.49    3.11
  -3   2  -6    0.09    0.09
   3  -2   6    0.07    0.10
   3  -2   6    0.15    0.08
  -4   2  -6   28.30    1.23
   4  -2   6   27.76    1.24
   4  -2   6   25.85    1.23
  -5   2  -6    7.46    0.42
   5  -2   6    7.38    0.43
  -6   2  -6    2.92    0.24
   6  -2   6    1.92    0.21
  -7   2  -6    2.34    0.23
   7  -2   6    2.02    0.23
  -8   2  -6   14.88    0.78
   8  -2   6   15.11    0.79
  -9   2  -6    0.66    0.21
   9  -2   6    0.71    0.21
 -10   2  -6   -0.06    0.20
  10  -2   6    0.08    0.22
 -11   2  -6    7.83    0.57
  11  -2   6    7.49    0.58
 -12   2  -6   14.12    0.85
  12  -2   6   14.49    0.87
 -13   2  -6    0.44    0.32
  13  -2   6    0.12    0.29
 -14   2  -6    5.47    0.55
  14  -2   6    4.82    0.52
 -14  -1   6    3.35    0.40
 -13  -1   6   21.11    1.11
 -12  -1   6    1.04    0.24
 -11  -1   6    5.16    0.41
 -10  -1   6   69.77    3.10
   9   1  -6    3.48    0.27
  -9  -1   6    3.67    0.31
   8   1  -6   30.42    1.34
  -8  -1   6   31.51    1.36
  -8  -1   6   27.32    1.34
   7   1  -6   38.60    1.70
  -7  -1   6   36.64    1.71
  -7  -1   6   40.66    1.73
   6   1  -6   13.88    0.65
  -6  -1   6   14.15    0.67
   5   1  -6    6.69    0.33
  -5  -1   6    6.47    0.34
  -5  -1   6    7.16    0.35
   4   1  -6    0.53    0.06
  -4  -1   6    0.52    0.08
  -4  -1   6    0.56    0.09
  -3  -1   6   94.52    4.18
  -3  -1   6   99.84    4.18
  -2  -1   6   17.69    0.84
  -2  -1   6   20.94    0.85
  -1  -1   6   56.81    2.41
  -1  -1   6   54.75    2.41
   0   1  -6  273.02   11.73
   0  -1   6  282.56   11.81
   0  -1   6  262.85   11.75
  -1   1  -6    6.36    0.32
   1  -1   6    6.34    0.32
  -2   1  -6  119.71    4.94
   2  -1   6  105.79    4.94
   2  -1   6  118.36    4.95
  -3   1  -6   81.13    3.47
   3  -1   6   81.89    3.48
   3  -1   6   76.70    3.47
  -4   1  -6    2.55    0.22
   4  -1   6    2.41    0.20
   4  -1   6    2.92    0.23
  -5   1  -6   45.13    1.94
   5  -1   6   41.87    1.94
  -6   1  -6   99.62    4.33
   6  -1   6   98.92    4.34
  -7   1  -6   22.32    1.07
   7  -1   6   22.79    1.08
  -8   1  -6   34.38    1.65
   8  -1   6   37.28    1.66
  -9   1  -6   15.93    0.85
   9  -1   6   16.83    0.87
 -10   1  -6   34.42    1.65
  10  -1   6   35.67    1.67
 -11   1  -6    6.87    0.55
  11  -1   6    6.73    0.54
 -12   1  -6    1.45    0.31
  12  -1   6    1.77    0.33
 -13   1  -6    1.37    0.35
  13  -1   6    1.20    0.32
 -14   1  -6    0.52    0.34
  14  -1   6    0.38    0.30
 -14   0   6    9.76    0.69
 -13   0   6    0.36    0.24
 -12   0   6   27.92    1.37
 -11   0   6   28.13    1.35
  10   0  -6    0.70    0.17
 -10   0   6    0.53    0.18
   9   0  -6  123.92    5.44
  -9   0   6  126.48    5.46
   8   0  -6   44.67    1.90
  -8   0   6   44.85    1.91
  -8   0   6   37.98    1.89
   7   0  -6   67.24    2.84
  -7   0   6   60.49    2.84
  -7   0   6   66.88    2.85
   6   0  -6   42.36    1.82
  -6   0   6   38.76    1.82
  -6   0   6   42.23    1.83
   5   0  -6   56.70    2.43
  -5   0   6   57.39    2.44
  -5   0   6   52.98    2.43
   4   0  -6    6.12    0.31
  -4   0   6    6.11    0.33
  -4   0   6    5.92    0.32
   3   0  -6  101.30    4.28
  -3   0   6   97.33    4.29
   2   0  -6    0.97    0.09
  -2   0   6    0.69    0.10
   1   0  -6   70.96    3.08
  -1   0   6   71.21    3.08
   0   0  -6   15.78    0.71
   0   0   6   14.86    0.70
   0   0   6   15.85    0.71
  -1   0  -6  470.87   20.26
   1   0   6  482.34   20.31
   1   0   6  454.04   20.24
  -2   0  -6   80.59    3.45
   2   0   6   82.50    3.46
   2   0   6   75.72    3.45
  -3   0  -6   41.91    1.84
   3   0   6   42.99    1.85
   3   0   6   40.07    1.84
  -4   0  -6   85.12    3.63
   4   0   6   81.60    3.64
  -5   0  -6   31.51    1.43
  -6   0  -6    8.11    0.45
   6   0   6    7.20    0.45
  -7   0  -6  350.07   15.25
   7   0   6  358.30   15.26
  -8   0  -6    1.23    0.22
   8   0   6    1.23    0.22
  -9   0  -6   85.69    3.75
   9   0   6   83.45    3.75
 -10   0  -6   12.78    0.74
  10   0   6   13.24    0.75
 -11   0  -6    1.27    0.26
  11   0   6    1.76    0.28
 -12   0  -6    9.04    0.64
  12   0   6    9.13    0.65
 -13   0  -6    9.82    0.71
  13   0   6    9.89    0.71
 -14   0  -6    1.21    0.36
  14   0   6    1.15    0.34
 -14   1   6    4.09    0.45
 -13   1   6   19.35    1.05
 -12   1   6    0.72    0.26
  11  -1  -6    4.78    0.41
 -11   1   6    5.32    0.45
  10  -1  -6   70.33    3.20
 -10   1   6   74.28    3.22
   9  -1  -6    3.45    0.31
  -9   1   6    4.17    0.34
   8  -1  -6   32.02    1.45
  -8   1   6   31.46    1.46
   7  -1  -6   41.56    1.75
  -7   1   6   41.55    1.76
  -7   1   6   33.88    1.74
   6  -1  -6   14.53    0.69
  -6   1   6   12.59    0.67
  -6   1   6   15.38    0.70
   5  -1  -6    6.80    0.37
  -5   1   6    6.38    0.36
  -5   1   6    6.92    0.38
   4  -1  -6    0.62    0.11
  -4   1   6    0.55    0.12
  -4   1   6    0.54    0.10
   3  -1  -6  100.10    4.17
  -3   1   6   96.60    4.17
  -3   1   6   92.22    4.17
   2  -1  -6   21.11    0.90
  -2   1   6   19.52    0.90
  -2   1   6   19.08    0.90
   1  -1  -6   55.47    2.40
  -1   1   6   54.30    2.40
  -1   1   6   55.52    2.40
   0  -1  -6  280.26   11.91
   0   1   6  268.29   11.99
   0   1   6  276.49   11.99
  -1  -1  -6    5.94    0.33
   1   1   6    6.36    0.34
   1   1   6    5.72    0.33
  -2  -1  -6  117.50    4.92
   2   1   6  118.00    4.92
   2   1   6  105.59    4.92
  -3  -1  -6   78.54    3.39
   3   1   6   76.79    3.39
  -4  -1  -6    3.03    0.26
   4   1   6    3.36    0.26
  -5  -1  -6   43.78    1.99
   5   1   6   45.40    2.00
  -6  -1  -6  100.12    4.31
   6   1   6   97.31    4.32
  -7  -1  -6   21.58    1.04
   7   1   6   21.69    1.05
  -8  -1  -6   34.82    1.63
   8   1   6   35.69    1.64
  -9  -1  -6   16.70    0.85
   9   1   6   15.63    0.85
 -10  -1  -6   33.90    1.60
  10   1   6   33.46    1.60
 -11  -1  -6    6.07    0.53
  11   1   6    6.95    0.53
 -12  -1  -6    0.93    0.29
  12   1   6    1.05    0.27
 -13  -1  -6    1.21    0.33
  13   1   6    1.22    0.31
 -14  -1  -6    1.12    0.35
  14   1   6    0.49    0.30
 -14   2   6   -0.06    0.30
 -13   2   6    0.04    0.29
 -12   2   6    3.19    0.37
  11  -2  -6    1.13    0.25
 -11   2   6    0.96    0.27
  10  -2  -6    2.80    0.29
 -10   2   6    3.36    0.34
   9  -2  -6    2.00    0.24
  -9   2   6    1.58    0.24
   8  -2  -6    0.01    0.14
  -8   2   6    0.14    0.16
   7  -2  -6    5.41    0.37
  -7   2   6    5.64    0.39
   6  -2  -6   17.21    0.85
  -6   2   6   18.17    0.86
   5  -2  -6   11.83    0.60
  -5   2   6   11.97    0.61
   4  -2  -6   58.93    2.56
  -4   2   6   57.49    2.56
   3  -2  -6  169.97    7.07
  -3   2   6  154.82    7.06
  -3   2   6  166.35    7.07
   2  -2  -6   23.84    1.04
  -2   2   6   23.13    1.04
  -2   2   6   21.39    1.04
   1  -2  -6   25.89    1.16
  -1   2   6   25.95    1.16
  -1   2   6   24.71    1.15
   0  -2  -6    0.07    0.11
   0   2   6    0.20    0.11
  -1  -2  -6   33.03    1.45
  -1  -2  -6   32.62    1.45
   1   2   6   31.01    1.44
  -2  -2  -6   77.20    3.33
   2   2   6   75.13    3.33
  -3  -2  -6    0.12    0.12
   3   2   6   -0.01    0.11
   4   2   6   29.88    1.37
  -5  -2  -6    7.96    0.47
   5   2   6    8.50    0.47
  -6  -2  -6    3.24    0.27
   6   2   6    2.48    0.24
  -7  -2  -6    2.20    0.25
   7   2   6    2.83    0.27
  -8  -2  -6   16.45    0.81
   8   2   6   14.71    0.81
  -9  -2  -6    0.27    0.19
   9   2   6    0.73    0.20
 -10  -2  -6   -0.01    0.22
  10   2   6    0.50    0.23
 -11  -2  -6    8.07    0.58
  11   2   6    6.67    0.55
 -12  -2  -6   14.21    0.84
  12   2   6   13.38    0.81
 -13  -2  -6   -0.03    0.29
  13   2   6   -0.32    0.23
 -14  -2  -6    4.18    0.48
 -14   3   6    7.10    0.61
 -13   3   6    0.83    0.33
 -12   3   6    0.57    0.29
  11  -3  -6    0.23    0.23
 -11   3   6    0.06    0.25
  10  -3  -6    0.60    0.23
 -10   3   6    0.31    0.25
   9  -3  -6    9.77    0.59
  -9   3   6    9.89    0.62
   8  -3  -6    7.90    0.51
  -8   3   6    8.18    0.52
   7  -3  -6    1.22    0.21
  -7   3   6    0.93    0.21
   6  -3  -6    2.05    0.23
  -6   3   6    2.14    0.25
   5  -3  -6   47.83    2.13
  -5   3   6   47.52    2.14
   4  -3  -6   14.83    0.73
  -4   3   6   14.66    0.73
   3  -3  -6  211.79    9.18
  -3   3   6  213.64    9.18
   2  -3  -6    9.29    0.50
  -2   3   6    9.10    0.49
   1  -3  -6   23.67    1.12
  -1   3   6   24.97    1.12
   0  -3  -6    2.19    0.21
   0   3   6    3.24    0.25
  -1  -3  -6    5.65    0.38
   1   3   6    6.42    0.37
  -2  -3  -6   31.33    1.41
  -2  -3  -6   30.86    1.40
   2   3   6   30.01    1.40
  -3  -3  -6   13.73    0.69
   3   3   6   13.59    0.69
  -4  -3  -6    3.96    0.32
   4   3   6    4.35    0.32
  -5  -3  -6    0.25    0.15
   5   3   6    0.39    0.15
  -6  -3  -6    7.42    0.47
   6   3   6    7.66    0.47
  -7  -3  -6   17.00    0.87
   7   3   6   17.17    0.86
  -8  -3  -6   18.93    0.96
   8   3   6   18.72    0.95
  -9  -3  -6    0.10    0.19
   9   3   6    0.19    0.18
 -10  -3  -6   12.11    0.72
  10   3   6   11.43    0.69
 -11  -3  -6    5.80    0.48
  11   3   6    4.24    0.40
 -12  -3  -6    0.97    0.29
  12   3   6    0.72    0.26
 -13  -3  -6   12.17    0.83
 -13   4   6    5.76    0.56
  12  -4  -6    4.68    0.46
 -12   4   6    5.47    0.50
  11  -4  -6    0.19    0.25
 -11   4   6    0.26    0.28
  10  -4  -6    3.06    0.35
 -10   4   6    4.26    0.42
   9  -4  -6    0.08    0.22
  -9   4   6    0.37    0.23
   8  -4  -6    0.31    0.20
  -8   4   6    0.38    0.22
   7  -4  -6    5.25    0.42
  -7   4   6    5.04    0.43
   6  -4  -6    1.13    0.21
  -6   4   6    1.19    0.22
   5  -4  -6    0.41    0.17
  -5   4   6    0.50    0.18
   4  -4  -6    6.51    0.42
  -4   4   6    6.04    0.41
   3  -4  -6    0.86    0.18
  -3   4   6    0.63    0.16
   2  -4  -6    8.51    0.49
  -2   4   6    8.51    0.49
   1  -4  -6   92.11    4.05
  -1   4   6   92.83    4.04
   0  -4  -6    6.71    0.42
   0   4   6    6.79    0.41
  -1  -4  -6   30.44    1.41
   1   4   6   30.59    1.40
  -2  -4  -6    2.98    0.28
  -2  -4  -6    3.04    0.28
   2   4   6    2.80    0.26
  -3  -4  -6    1.66    0.22
   3   4   6    2.16    0.22
  -4  -4  -6   25.72    1.23
   4   4   6   26.03    1.21
  -5  -4  -6    0.13    0.16
   5   4   6    0.26    0.16
  -6  -4  -6    1.25    0.21
   6   4   6    1.01    0.19
  -7  -4  -6    3.23    0.32
   7   4   6    3.96    0.34
  -8  -4  -6    0.96    0.23
   8   4   6    1.57    0.25
  -9  -4  -6    3.25    0.35
   9   4   6    4.22    0.36
 -10  -4  -6    0.94    0.26
  10   4   6    1.16    0.25
 -11  -4  -6    1.36    0.32
  11   4   6    1.21    0.28
 -12  -4  -6    2.77    0.38
 -13  -4  -6    0.44    0.31
  12  -5  -6    0.00    0.29
 -12   5   6    0.32    0.33
  11  -5  -6    1.92    0.35
 -11   5   6    2.17    0.38
  10  -5  -6    1.04    0.30
 -10   5   6    1.10    0.32
   9  -5  -6    0.40    0.24
  -9   5   6    0.09    0.24
   8  -5  -6   10.07    0.65
  -8   5   6   10.55    0.67
   7  -5  -6    8.34    0.56
  -7   5   6    8.03    0.56
   6  -5  -6    0.36    0.21
  -6   5   6    0.22    0.20
   5  -5  -6   21.95    1.09
  -5   5   6   22.32    1.09
   4  -5  -6    1.70    0.25
  -4   5   6    1.85    0.25
   3  -5  -6   13.35    0.73
  -3   5   6   14.31    0.73
   2  -5  -6   38.59    1.77
  -2   5   6   38.44    1.76
   1  -5  -6    1.10    0.19
  -1   5   6    1.08    0.18
   0  -5  -6   18.22    0.90
   0   5   6   17.88    0.89
  -1  -5  -6   40.23    1.88
   1   5   6   42.41    1.87
  -2  -5  -6    0.23    0.16
   2   5   6    0.19    0.15
  -3  -5  -6    1.34    0.22
  -3  -5  -6    1.08    0.22
   3   5   6    1.30    0.20
  -4  -5  -6    0.13    0.18
  -4  -5  -6    0.24    0.18
   4   5   6    0.05    0.15
  -5  -5  -6    0.20    0.20
   5   5   6   -0.01    0.15
  -6  -5  -6    3.94    0.37
   6   5   6    4.66    0.37
  -7  -5  -6    0.97    0.24
   7   5   6    0.85    0.21
  -8  -5  -6    3.78    0.38
   8   5   6    4.55    0.40
  -9  -5  -6    1.34    0.30
   9   5   6    0.94    0.24
 -10  -5  -6    0.82    0.27
  10   5   6    0.68    0.23
 -11  -5  -6    1.15    0.32
 -12  -5  -6    1.10    0.34
  11  -6  -6    3.23    0.43
 -11   6   6    2.88    0.44
  10  -6  -6    9.81    0.71
 -10   6   6   10.24    0.74
   9  -6  -6    2.95    0.39
  -9   6   6    2.98    0.39
   8  -6  -6    1.03    0.29
  -8   6   6    1.03    0.30
   7  -6  -6    6.04    0.51
  -7   6   6    6.63    0.53
   6  -6  -6   19.42    1.03
  -6   6   6   19.93    1.03
   5  -6  -6    0.44    0.20
  -5   6   6    0.24    0.21
   4  -6  -6   48.69    2.23
  -4   6   6   48.90    2.22
   3  -6  -6    1.54    0.25
  -3   6   6    2.15    0.27
   2  -6  -6   27.03    1.32
  -2   6   6   27.72    1.30
   1  -6  -6   28.28    1.35
  -1   6   6   28.38    1.34
   0  -6  -6    0.98    0.20
   0   6   6    0.96    0.20
  -1  -6  -6    0.18    0.18
   1   6   6    0.10    0.16
  -2  -6  -6   42.71    1.94
   2   6   6   41.52    1.92
  -3  -6  -6    9.06    0.56
   3   6   6    8.28    0.53
  -4  -6  -6    3.14    0.33
  -4  -6  -6    3.14    0.33
   4   6   6    2.56    0.28
  -5  -6  -6    1.34    0.26
  -5  -6  -6    1.43    0.26
   5   6   6    1.62    0.23
  -6  -6  -6   19.42    1.05
   6   6   6   20.75    1.01
  -7  -6  -6    1.27    0.29
   7   6   6    1.05    0.23
  -8  -6  -6    2.86    0.36
   8   6   6    3.36    0.33
  -9  -6  -6    2.45    0.38
 -10  -6  -6    5.13    0.49
 -11  -6  -6    1.43    0.38
  10  -7  -6    8.43    0.68
 -10   7   6    7.58    0.68
   9  -7  -6    0.70    0.31
  -9   7   6    0.69    0.31
   8  -7  -6   12.44    0.78
  -8   7   6   11.06    0.77
   7  -7  -6    3.18    0.38
  -7   7   6    3.21    0.38
   6  -7  -6    2.55    0.34
  -6   7   6    3.23    0.36
   5  -7  -6   14.32    0.82
  -5   7   6   13.39    0.79
   4  -7  -6    0.23    0.23
  -4   7   6    0.29    0.23
   3  -7  -6   47.97    2.15
  -3   7   6   44.73    2.12
   2  -7  -6   12.25    0.72
  -2   7   6   12.46    0.70
   1  -7  -6   12.25    0.72
  -1   7   6   12.60    0.70
   0  -7  -6    6.64    0.51
   0   7   6    6.24    0.46
  -1  -7  -6   15.23    0.84
   1   7   6   15.18    0.81
  -2  -7  -6    0.36    0.21
   2   7   6    0.20    0.19
  -3  -7  -6   29.62    1.40
   3   7   6   27.41    1.36
  -4  -7  -6    1.26    0.27
   4   7   6    2.08    0.27
  -5  -7  -6   63.47    2.79
   5   7   6   58.24    2.74
  -6  -7  -6    1.49    0.30
  -6  -7  -6    1.98    0.31
   6   7   6    2.22    0.29
  -7  -7  -6   11.13    0.74
  -7  -7  -6   11.18    0.75
  -8  -7  -6   18.44    1.05
  -9  -7  -6    1.83    0.36
 -10  -7  -6    2.46    0.42
   9  -8  -6   11.06    0.82
  -9   8   6   12.21    0.83
   8  -8  -6    7.49    0.64
  -8   8   6    7.83    0.66
   7  -8  -6    0.58    0.30
  -7   8   6    0.64    0.30
   6  -8  -6   25.65    1.30
  -6   8   6   24.12    1.27
   5  -8  -6    4.45    0.43
  -5   8   6    4.21    0.42
   4  -8  -6   14.09    0.83
  -4   8   6   13.40    0.81
   3  -8  -6    0.17    0.23
  -3   8   6    0.43    0.23
   2  -8  -6    9.31    0.66
  -2   8   6    9.86    0.62
   1  -8  -6    2.18    0.32
  -1   8   6    2.20    0.29
   0  -8  -6    3.21    0.37
   0   8   6    2.64    0.31
  -1  -8  -6   22.14    1.12
   1   8   6   20.36    1.07
  -2  -8  -6   39.59    1.83
   2   8   6   36.77    1.78
  -3  -8  -6    6.32    0.55
   3   8   6    7.05    0.50
  -4  -8  -6   41.04    1.95
  -5  -8  -6    0.75    0.28
  -6  -8  -6   22.52    1.20
  -7  -8  -6   28.75    1.47
  -8  -8  -6    6.28    0.57
  -8  -8  -6    5.37    0.54
   6  -9  -6    1.51    0.35
  -6   9   6    2.39    0.37
   5  -9  -6    2.67    0.41
  -5   9   6    1.52    0.33
   4  -9  -6   -0.03    0.28
  -4   9   6    0.12    0.27
   3  -9  -6    4.58    0.46
  -3   9   6    4.48    0.44
   2  -9  -6   19.40    1.06
  -2   9   6   18.21    1.01
   1  -9  -6    1.85    0.33
   0  -9  -6   20.37    1.12
  -1  -9  -6    1.47    0.31
  -2  -9  -6    9.44    0.69
  -3  -9  -6    0.50    0.28
  -4  -9  -6   -0.23    0.28
  -5  -9  -6    4.38    0.47
  -6  -9  -6    2.92    0.44
   2 -10  -6    0.50    0.30
   1 -10  -6    5.11    0.51
   0 -10  -6    0.12    0.28
  -1 -10  -6   13.10    0.87
  -2 -10  -6    0.00    0.29
  -1 -10   7    0.71    0.23
   0 -10   7    9.89    0.63
   1 -10   7    9.78    0.63
  -6  -9   7    8.33    0.52
  -5  -9   7    1.26    0.22
  -4  -9   7    0.01    0.17
  -3  -9   7    4.36    0.37
  -2  -9   7    0.88    0.20
  -1  -9   7   14.99    0.79
   0  -9   7   16.02    0.84
   1  -9   7    8.87    0.57
   2  -9   7   10.98    0.66
   3  -9   7    0.36    0.22
   4  -9   7    1.97    0.31
   5  -9   7    1.78    0.31
   6  -9   7    4.10    0.42
  -8  -8   7    1.30    0.23
  -7  -8   7    0.88    0.20
  -6  -8   7    1.89    0.23
  -5  -8   7   -0.22    0.14
  -4  -8   7    0.11    0.15
  -3  -8   7    0.23    0.15
  -2  -8   7    0.34    0.15
  -1  -8   7    3.34    0.29
   0  -8   7    1.42    0.22
   1  -8   7   13.97    0.73
   2  -8   7    0.26    0.18
   3  -8   7    2.61    0.29
   4  -8   7    0.58    0.22
   5  -8   7    0.47    0.22
   6  -8   7   -0.14    0.23
   7  -8   7    0.12    0.26
   8  -8   7    6.04    0.53
 -10  -7   7    0.91    0.24
  -9  -7   7    2.52    0.29
  -8  -7   7    0.60    0.20
  -7  -7   7    0.94    0.20
  -7  -7   7    1.41    0.20
  -6  -7   7    0.84    0.17
  -5  -7   7    1.55    0.19
  -4  -7   7   17.80    0.84
  -3  -7   7    1.92    0.19
  -2  -7   7    3.35    0.27
  -1  -7   7    4.30    0.31
   0  -7   7    0.43    0.15
   1  -7   7    3.81    0.31
   2  -7   7   25.53    1.21
   3  -7   7    0.31    0.17
   4  -7   7    3.39    0.32
   5  -7   7    3.43    0.34
   6  -7   7    0.84    0.25
   7  -7   7    1.11    0.28
   8  -7   7    1.06    0.29
   9  -7   7   -0.14    0.26
  10  -7   7    0.05    0.30
 -11  -6   7    0.80    0.23
 -10  -6   7    3.33    0.31
  -9  -6   7    5.32    0.39
  -8  -6   7    0.88    0.18
  -7  -6   7   13.95    0.70
  -6  -6   7    0.69    0.15
  -5  -6   7    1.66    0.15
  -5  -6   7    1.37    0.16
  -4  -6   7    0.30    0.09
  -4  -6   7    0.33    0.11
  -3  -6   7    0.37    0.11
  -3  -6   7    0.34    0.09
  -2  -6   7    5.52    0.31
  -2  -6   7    5.25    0.30
  -1  -6   7    4.35    0.27
  -1  -6   7    3.84    0.25
   0  -6   7   22.63    0.99
   0  -6   7   20.24    0.98
   1  -6   7    6.39    0.37
   1  -6   7    5.77    0.34
   2  -6   7    6.57    0.40
   2  -6   7    8.49    0.45
   3  -6   7   35.32    1.61
   4  -6   7   27.47    1.29
   5  -6   7    0.08    0.16
   6  -6   7   30.83    1.47
   7  -6   7    9.59    0.62
   8  -6   7    6.94    0.55
   9  -6   7    9.47    0.67
  10  -6   7    0.33    0.28
  11  -6   7   -0.07    0.29
 -12  -5   7    0.44    0.22
 -11  -5   7    2.22    0.28
 -10  -5   7    2.80    0.28
  -9  -5   7    6.11    0.40
  -8  -5   7   56.71    2.50
  -7  -5   7    6.09    0.34
  -7  -5   7    6.40    0.37
  -6  -5   7   24.68    1.16
  -6  -5   7   27.20    1.17
  -5  -5   7    2.72    0.21
  -5  -5   7    2.83    0.19
  -4  -5   7    8.21    0.40
  -4  -5   7    7.66    0.39
  -3  -5   7   16.48    0.78
  -3  -5   7   18.00    0.78
  -2  -5   7   30.05    1.34
  -2  -5   7   30.73    1.34
  -1  -5   7   22.10    0.97
  -1  -5   7   21.16    0.97
   0  -5   7   70.48    2.86
   0  -5   7   60.94    2.85
   1  -5   7    0.08    0.11
   1  -5   7   -0.07    0.07
  -2   5  -7   35.88    1.58
   2  -5   7   36.01    1.61
  -3   5  -7    1.03    0.14
   3  -5   7    1.31    0.15
   3  -5   7    1.20    0.17
  -4   5  -7    0.75    0.14
   4  -5   7    0.76    0.17
   4  -5   7    0.66    0.12
  -5   5  -7    5.42    0.36
   5  -5   7    5.20    0.39
  -6   5  -7    5.05    0.37
   6  -5   7    5.24    0.41
  -7   5  -7   45.58    2.12
   7  -5   7   47.98    2.15
  -8   5  -7   11.46    0.67
   8  -5   7   12.48    0.71
  -9   5  -7   25.97    1.31
   9  -5   7   27.96    1.35
  10  -5   7   17.80    1.00
  11  -5   7   -0.03    0.28
  12  -5   7    5.11    0.52
 -13  -4   7    1.23    0.27
 -12  -4   7    1.09    0.24
 -11  -4   7    0.74    0.21
 -10  -4   7   12.52    0.66
  -9  -4   7   10.72    0.57
  -8  -4   7   14.93    0.72
  -7  -4   7   79.69    3.62
  -7  -4   7   87.31    3.63
  -6  -4   7    2.93    0.20
  -6  -4   7    3.15    0.22
  -5  -4   7   54.91    2.47
  -5  -4   7   59.02    2.47
  -4  -4   7   79.14    3.31
  -4  -4   7   74.52    3.31
  -3  -4   7    2.28    0.14
  -3  -4   7    2.10    0.14
  -2  -4   7   31.55    1.42
  -2  -4   7   33.99    1.43
  -1  -4   7   95.15    4.26
  -1  -4   7  102.87    4.27
   0  -4   7   12.04    0.58
   0  -4   7   13.44    0.59
   1  -4   7   37.95    1.60
   1  -4   7   34.55    1.59
  -2   4  -7    1.16    0.12
   2  -4   7    0.97    0.14
  -3   4  -7   13.09    0.63
   3  -4   7   14.31    0.66
   3  -4   7   12.46    0.64
  -4   4  -7    6.30    0.35
   4  -4   7    5.65    0.35
   4  -4   7    5.87    0.38
  -5   4  -7    0.11    0.12
   5  -4   7    0.21    0.15
  -6   4  -7    1.55    0.20
   6  -4   7    1.92    0.23
  -7   4  -7    0.26    0.16
   7  -4   7    0.43    0.19
  -8   4  -7   36.11    1.73
   8  -4   7   39.09    1.76
  -9   4  -7   31.83    1.54
   9  -4   7   33.14    1.56
 -10   4  -7   12.62    0.76
  10  -4   7   14.18    0.81
 -11   4  -7   10.33    0.70
  11  -4   7   11.69    0.76
 -12   4  -7    3.07    0.39
  12  -4   7    3.45    0.44
  13  -4   7    1.92    0.41
 -13  -3   7    2.91    0.33
 -12  -3   7    0.21    0.20
 -11  -3   7   14.14    0.75
 -10  -3   7    0.17    0.16
  -9  -3   7   13.01    0.66
  -8  -3   7   47.83    2.02
  -8  -3   7   43.34    2.01
  -7  -3   7    3.54    0.25
  -7  -3   7    3.24    0.22
  -6  -3   7   14.61    0.69
  -6  -3   7   15.67    0.70
  -5  -3   7   71.13    3.14
  -5  -3   7   74.07    3.14
  -4  -3   7    3.35    0.18
  -4  -3   7    3.52    0.18
  -1  -3   7   78.43    3.48
  -1  -3   7   83.67    3.49
   0  -3   7   39.82    1.77
   0  -3   7   41.84    1.78
  -1   3  -7    1.65    0.12
   1  -3   7    1.78    0.14
   1  -3   7    1.82    0.16
  -2   3  -7   60.30    2.70
   2  -3   7   64.50    2.72
  -3   3  -7    3.28    0.22
   3  -3   7    3.35    0.23
   3  -3   7    3.24    0.24
  -4   3  -7   17.13    0.78
   4  -3   7   15.31    0.78
   4  -3   7   17.11    0.80
  -5   3  -7   25.29    1.17
   5  -3   7   25.81    1.19
  -6   3  -7   10.77    0.58
   6  -3   7   11.24    0.60
  -7   3  -7   24.25    1.18
   7  -3   7   26.03    1.21
  -8   3  -7    0.90    0.20
   8  -3   7    0.84    0.20
  -9   3  -7    0.50    0.20
   9  -3   7    0.86    0.25
 -10   3  -7   17.85    0.95
  10  -3   7   18.18    0.98
 -11   3  -7    9.56    0.67
  11  -3   7   10.56    0.70
 -12   3  -7   12.37    0.81
  12  -3   7   14.00    0.86
 -13   3  -7    8.83    0.70
  13  -3   7    9.31    0.72
 -14  -2   7    4.45    0.43
 -13  -2   7    1.35    0.28
 -12  -2   7   21.94    1.10
 -11  -2   7   -0.06    0.18
 -10  -2   7   17.22    0.86
  -9  -2   7    1.18    0.18
  -8  -2   7    0.29    0.08
  -8  -2   7    0.33    0.13
  -7  -2   7    0.74    0.13
  -7  -2   7    0.63    0.11
  -6  -2   7   13.57    0.60
  -6  -2   7   11.56    0.59
  -5  -2   7    7.18    0.36
  -5  -2   7    7.89    0.37
  -4  -2   7   30.46    1.29
  -4  -2   7   28.73    1.29
  -3  -2   7   45.16    1.90
  -3  -2   7   43.02    1.90
  -1  -2   7    0.84    0.07
  -1  -2   7    0.98    0.07
   0  -2   7   67.53    2.83
   0  -2   7   63.65    2.83
  -1   2  -7   64.24    2.79
   1  -2   7   65.50    2.80
   1  -2   7   64.07    2.80
  -2   2  -7   17.94    0.83
   2  -2   7   18.30    0.83
   2  -2   7   18.88    0.84
  -3   2  -7  147.39    6.42
   3  -2   7  144.25    6.42
   3  -2   7  154.95    6.43
  -4   2  -7  161.66    6.73
   4  -2   7  141.40    6.72
   4  -2   7  164.29    6.74
  -5   2  -7   15.50    0.74
   5  -2   7   15.12    0.76
  -6   2  -7   22.17    1.07
   6  -2   7   23.33    1.09
  -7   2  -7    0.15    0.15
   7  -2   7    0.01    0.14
  -8   2  -7    0.80    0.19
   8  -2   7    1.12    0.23
  -9   2  -7   19.15    0.98
   9  -2   7   19.36    1.00
 -10   2  -7    4.46    0.39
  10  -2   7    4.39    0.41
 -11   2  -7    7.24    0.56
  11  -2   7    7.23    0.58
 -12   2  -7    5.96    0.52
  12  -2   7    6.06    0.53
 -13   2  -7   10.70    0.77
  13  -2   7   11.49    0.78
 -14   2  -7    2.18    0.41
  14  -2   7    2.25    0.41
 -14  -1   7    1.86    0.33
 -13  -1   7   17.19    0.93
 -12  -1   7    1.50    0.26
 -11  -1   7   32.56    1.53
 -10  -1   7    1.57    0.23
   9   1  -7    6.53    0.39
  -9  -1   7    7.46    0.43
   8   1  -7    0.41    0.11
  -8  -1   7    0.24    0.10
  -8  -1   7    0.23    0.14
   7   1  -7    0.89    0.11
  -7  -1   7    0.69    0.14
  -7  -1   7    0.30    0.08
   6   1  -7    4.67    0.25
  -6  -1   7    5.05    0.30
  -6  -1   7    4.58    0.26
   5   1  -7    1.02    0.09
  -5  -1   7    0.90    0.11
  -5  -1   7    0.92    0.12
  -4  -1   7   17.84    0.76
  -4  -1   7   15.86    0.75
  -3  -1   7    1.47    0.13
  -3  -1   7    1.28    0.12
  -2  -1   7  157.15    6.74
  -2  -1   7  156.05    6.74
  -1  -1   7   14.15    0.66
  -1  -1   7   15.40    0.66
   0   1  -7    7.81    0.37
   0  -1   7    7.82    0.38
   0  -1   7    7.99    0.38
  -1   1  -7    0.59    0.09
   1  -1   7    0.49    0.09
  -2   1  -7   95.13    4.00
   2  -1   7   86.96    4.00
   2  -1   7   95.37    4.01
  -3   1  -7   42.64    1.85
   3  -1   7   41.33    1.85
   3  -1   7   41.88    1.86
  -4   1  -7   57.24    2.42
   4  -1   7   57.97    2.43
   4  -1   7   49.72    2.41
  -5   1  -7  112.84    4.86
   5  -1   7  110.91    4.87
  -6   1  -7    1.03    0.18
   6  -1   7    0.86    0.17
  -7   1  -7   16.22    0.81
   7  -1   7   15.83    0.82
  -8   1  -7    8.55    0.52
   8  -1   7    7.93    0.52
  -9   1  -7    5.49    0.42
   9  -1   7    4.81    0.43
 -10   1  -7    5.12    0.44
  10  -1   7    3.90    0.38
 -11   1  -7    3.47    0.37
  11  -1   7    3.24    0.37
 -12   1  -7    4.12    0.44
  12  -1   7    4.02    0.42
 -13   1  -7   -0.35    0.28
  13  -1   7    0.31    0.30
 -14   1  -7    4.62    0.48
  14  -1   7    3.64    0.45
 -14   0   7    0.30    0.28
 -13   0   7    0.00    0.24
 -12   0   7   -0.04    0.22
 -11   0   7   -0.01    0.19
 -10   0   7   -0.19    0.16
   9   0  -7   -0.21    0.12
  -9   0   7    0.10    0.16
   8   0  -7   -0.01    0.12
  -8   0   7    0.07    0.14
  -8   0   7    0.04    0.10
   7   0  -7    0.13    0.10
  -7   0   7    0.13    0.10
  -7   0   7   -0.01    0.13
   6   0  -7   -0.03    0.09
  -6   0   7   -0.06    0.12
  -6   0   7    0.11    0.10
   5   0  -7   -0.04    0.08
  -5   0   7    0.09    0.09
  -5   0   7    0.16    0.10
   4   0  -7    0.17    0.08
  -4   0   7    0.22    0.10
  -4   0   7   -0.09    0.05
   3   0  -7    0.24    0.07
  -3   0   7   -0.02    0.09
  -3   0   7   -0.05    0.01
   2   0  -7    0.17    0.07
  -2   0   7    0.20    0.09
   1   0  -7    0.05    0.07
  -1   0   7    0.00    0.08
  -1   0   7   -0.04    0.03
  -1   0   7    0.03    0.03
   0   0  -7    0.18    0.08
   0   0   7    0.04    0.07
   0   0   7   -0.14    0.07
  -1   0  -7   -0.04    0.08
   1   0   7   -0.07    0.07
   1   0   7   -0.10    0.08
  -2   0  -7    0.04    0.09
   2   0   7   -0.01    0.08
   2   0   7    0.02    0.09
  -3   0  -7    0.14    0.10
   3   0   7   -0.04    0.11
   3   0   7   -0.05    0.08
  -4   0  -7   -0.03    0.10
   4   0   7   -0.09    0.11
  -5   0  -7    0.14    0.13
   5   0   7    0.14    0.12
  -6   0  -7   -0.03    0.13
   6   0   7    0.05    0.12
  -7   0  -7   -0.02    0.14
   7   0   7    0.20    0.16
  -8   0  -7   -0.11    0.16
   8   0   7   -0.11    0.16
  -9   0  -7   -0.10    0.18
   9   0   7    0.00    0.17
 -10   0  -7   -0.05    0.21
  10   0   7    0.26    0.23
 -11   0  -7    0.32    0.23
  11   0   7    0.12    0.24
 -12   0  -7    0.08    0.25
  12   0   7    0.03    0.26
 -13   0  -7    0.17    0.28
  13   0   7   -0.25    0.27
 -14   0  -7    0.04    0.32
  14   0   7   -0.08    0.30
 -14   1   7    1.82    0.36
 -13   1   7   20.48    1.10
 -12   1   7    1.09    0.27
 -11   1   7   34.39    1.63
  10  -1  -7    1.48    0.22
 -10   1   7    1.02    0.24
   9  -1  -7    7.55    0.46
  -9   1   7    7.80    0.49
   8  -1  -7    0.60    0.15
  -8   1   7    0.34    0.17
   7  -1  -7    0.83    0.14
  -7   1   7    0.56    0.13
  -7   1   7    0.71    0.17
   6  -1  -7    5.16    0.32
  -6   1   7    5.55    0.35
  -6   1   7    4.49    0.31
   5  -1  -7    0.92    0.13
  -5   1   7    0.83    0.12
  -5   1   7    1.01    0.15
   4  -1  -7   16.75    0.76
  -4   1   7   15.66    0.76
  -4   1   7   16.88    0.77
   3  -1  -7    1.44    0.14
  -3   1   7    1.71    0.16
  -3   1   7    1.50    0.14
   2  -1  -7  166.61    6.79
  -2   1   7  147.51    6.79
  -2   1   7  158.50    6.79
   1  -1  -7   15.45    0.68
  -1   1   7   13.99    0.68
  -1   1   7   13.97    0.68
  -1   1   7   14.76    0.68
   0  -1  -7    8.39    0.41
   0   1   7    7.43    0.41
   0   1   7    8.05    0.41
  -1  -1  -7    0.49    0.11
  -1  -1  -7    0.46    0.11
   1   1   7    0.44    0.11
   1   1   7    0.70    0.13
  -2  -1  -7   91.20    3.94
   2   1   7   85.95    3.93
   2   1   7   94.51    3.94
  -3  -1  -7   44.15    1.92
   3   1   7   42.21    1.92
  -4  -1  -7   56.35    2.52
   4   1   7   57.75    2.52
  -5  -1  -7  114.41    5.05
   5   1   7  117.91    5.06
  -6  -1  -7    0.88    0.17
   6   1   7    0.40    0.15
  -7  -1  -7   16.72    0.84
   7   1   7   16.88    0.85
  -8  -1  -7    8.24    0.51
   8   1   7    8.36    0.52
  -9  -1  -7    4.30    0.38
   9   1   7    5.09    0.42
 -10  -1  -7    4.59    0.40
  10   1   7    4.27    0.39
 -11  -1  -7    3.23    0.37
  11   1   7    2.71    0.34
 -12  -1  -7    3.60    0.41
  12   1   7    4.41    0.45
 -13  -1  -7    0.01    0.29
  13   1   7    0.63    0.31
 -14  -1  -7    4.35    0.48
  14   1   7    4.20    0.47
 -14   2   7    5.78    0.54
 -13   2   7    1.30    0.32
 -12   2   7   24.36    1.25
 -11   2   7    0.34    0.24
  10  -2  -7   16.94    0.90
 -10   2   7   18.72    0.94
   9  -2  -7    1.41    0.22
  -9   2   7    1.28    0.24
   8  -2  -7    0.03    0.15
  -8   2   7    0.23    0.18
   7  -2  -7    0.85    0.17
  -7   2   7    0.73    0.19
   6  -2  -7   12.64    0.64
  -6   2   7   12.73    0.66
   5  -2  -7    8.02    0.44
  -5   2   7    7.54    0.45
   4  -2  -7   30.27    1.37
  -4   2   7   30.86    1.37
  -4   2   7   29.34    1.39
   3  -2  -7   44.30    1.88
  -3   2   7   39.50    1.87
  -3   2   7   43.01    1.88
   2  -2  -7   49.47    2.09
  -2   2   7   43.50    2.08
  -2   2   7   48.83    2.09
   1  -2  -7    0.63    0.13
  -1   2   7    0.53    0.11
  -1   2   7    0.66    0.12
  -1   2   7    0.87    0.14
   0  -2  -7   67.06    2.90
   0   2   7   65.35    2.90
  -1  -2  -7   66.34    2.88
  -1  -2  -7   66.04    2.88
   1   2   7   64.81    2.88
  -2  -2  -7   19.40    0.92
   2   2   7   19.67    0.92
  -3  -2  -7  151.44    6.59
   3   2   7  153.11    6.59
  -4  -2  -7  151.38    6.63
   4   2   7  154.63    6.63
  -5  -2  -7   14.96    0.77
   5   2   7   15.77    0.77
  -6  -2  -7   22.19    1.08
   6   2   7   23.15    1.09
  -7  -2  -7    0.31    0.16
   7   2   7    0.17    0.16
  -8  -2  -7    0.95    0.21
   8   2   7    0.60    0.20
  -9  -2  -7   18.28    0.95
   9   2   7   17.98    0.94
 -10  -2  -7    3.81    0.38
  10   2   7    3.78    0.36
 -11  -2  -7    6.70    0.55
  11   2   7    6.69    0.54
 -12  -2  -7    5.91    0.51
  12   2   7    4.36    0.44
 -13  -2  -7   10.52    0.75
  13   2   7    9.97    0.71
 -14  -2  -7    1.73    0.39
 -13   3   7    3.05    0.41
 -12   3   7    0.16    0.28
  11  -3  -7   14.61    0.83
 -11   3   7   15.35    0.87
  10  -3  -7    0.05    0.20
 -10   3   7    0.13    0.23
   9  -3  -7   13.14    0.75
  -9   3   7   14.75    0.78
   8  -3  -7   53.78    2.44
  -8   3   7   54.37    2.45
   7  -3  -7    4.16    0.35
  -7   3   7    3.65    0.32
   6  -3  -7   17.25    0.84
  -6   3   7   16.54    0.85
   5  -3  -7   77.34    3.34
  -5   3   7   74.33    3.34
   4  -3  -7    3.28    0.29
  -4   3   7    3.55    0.29
   3  -3  -7  183.63    7.77
  -3   3   7  175.90    7.77
   2  -3  -7    0.79    0.16
  -2   3   7    0.83    0.16
   1  -3  -7   82.78    3.67
  -1   3   7   85.20    3.67
   0  -3  -7   41.76    1.90
   0   3   7   43.05    1.90
  -1  -3  -7    1.85    0.20
   1   3   7    2.42    0.22
  -2  -3  -7   63.65    2.83
  -2  -3  -7   63.92    2.83
   2   3   7   64.77    2.83
  -3  -3  -7    2.87    0.26
   3   3   7    3.69    0.30
  -4  -3  -7   17.50    0.88
   4   3   7   18.01    0.87
  -5  -3  -7   26.36    1.23
   5   3   7   25.84    1.23
  -6  -3  -7   11.22    0.61
   6   3   7   10.53    0.60
  -7  -3  -7   25.36    1.20
   7   3   7   24.25    1.19
  -8  -3  -7    0.58    0.20
   8   3   7    1.04    0.22
  -9  -3  -7    1.02    0.25
   9   3   7    0.52    0.22
 -10  -3  -7   18.33    0.95
  10   3   7   16.57    0.94
 -11  -3  -7    8.91    0.65
  11   3   7    9.33    0.63
 -12  -3  -7   12.37    0.80
  12   3   7   11.48    0.76
 -13  -3  -7    8.62    0.71
 -13   4   7    1.62    0.38
 -12   4   7    1.03    0.34
  11  -4  -7    0.99    0.28
 -11   4   7    0.91    0.30
  10  -4  -7   14.16    0.80
 -10   4   7   13.85    0.82
   9  -4  -7   11.61    0.70
  -9   4   7   11.97    0.72
   8  -4  -7   14.36    0.81
  -8   4   7   15.30    0.82
   7  -4  -7   93.60    4.14
  -7   4   7   93.74    4.14
   6  -4  -7    3.69    0.33
  -6   4   7    3.60    0.33
   5  -4  -7   58.29    2.56
  -5   4   7   55.96    2.56
   4  -4  -7   80.24    3.53
  -4   4   7   79.79    3.53
   3  -4  -7    2.30    0.23
  -3   4   7    1.94    0.22
   2  -4  -7   35.46    1.61
  -2   4   7   34.82    1.60
   1  -4  -7  101.86    4.43
  -1   4   7  100.79    4.43
   0  -4  -7   12.15    0.67
   0   4   7   13.79    0.67
  -1  -4  -7   38.61    1.76
   1   4   7   38.48    1.75
  -2  -4  -7    1.38    0.21
   2   4   7    1.12    0.18
  -3  -4  -7   14.47    0.74
  -3  -4  -7   13.21    0.73
   3   4   7   14.37    0.72
  -4  -4  -7    6.06    0.44
   4   4   7    6.69    0.43
  -5  -4  -7    0.30    0.18
   5   4   7    0.16    0.17
  -6  -4  -7    1.30    0.22
   6   4   7    1.68    0.23
  -7  -4  -7    0.45    0.22
   7   4   7    0.36    0.18
  -8  -4  -7   38.34    1.77
   8   4   7   36.79    1.75
  -9  -4  -7   34.48    1.61
   9   4   7   31.76    1.58
 -10  -4  -7   13.46    0.81
  10   4   7   12.69    0.76
 -11  -4  -7   11.92    0.77
  11   4   7   10.67    0.71
 -12  -4  -7    4.19    0.47
 -13  -4  -7    1.77    0.39
 -12   5   7    0.59    0.35
  11  -5  -7    1.96    0.34
 -11   5   7    2.18    0.38
  10  -5  -7    2.74    0.37
 -10   5   7    3.15    0.41
   9  -5  -7    6.97    0.56
  -9   5   7    6.73    0.58
   8  -5  -7   62.16    2.80
  -8   5   7   61.22    2.80
   7  -5  -7    7.96    0.55
  -7   5   7    7.85    0.55
   6  -5  -7   29.07    1.40
  -6   5   7   29.25    1.40
   5  -5  -7    3.15    0.31
  -5   5   7    2.58    0.29
   4  -5  -7    8.34    0.53
  -4   5   7    8.43    0.53
   3  -5  -7   18.68    0.94
  -3   5   7   18.79    0.94
   2  -5  -7   30.69    1.47
  -2   5   7   32.22    1.47
   1  -5  -7   22.66    1.08
  -1   5   7   21.76    1.07
   0  -5  -7   69.92    3.09
   0   5   7   68.78    3.07
  -1  -5  -7    0.08    0.17
   1   5   7    0.14    0.16
  -2  -5  -7   37.41    1.73
   2   5   7   37.61    1.72
  -3  -5  -7    0.96    0.21
  -3  -5  -7    0.79    0.20
   3   5   7    0.99    0.19
  -4  -5  -7    0.58    0.20
  -4  -5  -7    0.18    0.18
   4   5   7    1.07    0.21
  -5  -5  -7    5.29    0.44
   5   5   7    5.13    0.41
  -6  -5  -7    5.14    0.47
   6   5   7    6.19    0.45
  -7  -5  -7   47.37    2.13
   7   5   7   44.40    2.11
  -8  -5  -7   12.58    0.76
   8   5   7   12.26    0.72
  -9  -5  -7   28.25    1.39
   9   5   7   26.81    1.35
 -10  -5  -7   16.31    0.96
  10   5   7   16.53    0.91
 -11  -5  -7    0.49    0.31
 -12  -5  -7    5.46    0.54
  11  -6  -7    0.97    0.34
 -11   6   7    1.26    0.36
  10  -6  -7    3.63    0.42
 -10   6   7    3.18    0.43
   9  -6  -7    5.43    0.49
  -9   6   7    5.19    0.49
   8  -6  -7    0.90    0.28
  -8   6   7    1.35    0.32
   7  -6  -7   14.90    0.86
  -7   6   7   15.00    0.86
   6  -6  -7    0.54    0.24
  -6   6   7    0.54    0.25
   5  -6  -7    1.24    0.26
  -5   6   7    1.57    0.26
   4  -6  -7    0.26    0.20
  -4   6   7    0.19    0.20
   3  -6  -7    0.00    0.19
  -3   6   7    0.22    0.20
   2  -6  -7    6.44    0.47
  -2   6   7    5.57    0.44
   1  -6  -7    3.72    0.34
  -1   6   7    5.00    0.39
   0  -6  -7   23.05    1.15
   0   6   7   23.36    1.13
  -1  -6  -7    7.04    0.49
   1   6   7    6.43    0.45
  -2  -6  -7    8.70    0.56
   2   6   7    8.51    0.53
  -3  -6  -7   39.94    1.83
   3   6   7   38.09    1.80
  -4  -6  -7   28.71    1.40
   4   6   7   28.82    1.38
  -5  -6  -7   -0.43    0.20
  -5  -6  -7    0.18    0.21
   5   6   7    0.31    0.20
  -6  -6  -7   32.40    1.52
   6   6   7   29.52    1.47
  -7  -6  -7    8.64    0.62
   7   6   7    8.09    0.56
  -8  -6  -7    6.69    0.57
   8   6   7    6.02    0.50
  -9  -6  -7    8.49    0.68
 -10  -6  -7    0.04    0.28
 -11  -6  -7   -0.23    0.31
  10  -7  -7    0.62    0.34
 -10   7   7    0.46    0.35
   9  -7  -7    2.59    0.39
  -9   7   7    2.85    0.42
   8  -7  -7    0.29    0.28
  -8   7   7    0.27    0.29
   7  -7  -7    1.11    0.31
  -7   7   7    1.08    0.30
   6  -7  -7    1.37    0.32
  -6   7   7    0.66    0.28
   5  -7  -7    1.64    0.32
  -5   7   7    1.62    0.30
   4  -7  -7   19.66    1.05
  -4   7   7   20.02    1.03
   3  -7  -7    2.48    0.33
  -3   7   7    2.31    0.30
   2  -7  -7    3.71    0.39
  -2   7   7    4.48    0.38
   1  -7  -7    3.53    0.36
  -1   7   7    5.21    0.43
   0  -7  -7    0.21    0.23
   0   7   7    0.16    0.19
  -1  -7  -7    3.78    0.37
   1   7   7    4.69    0.39
  -2  -7  -7   28.00    1.35
   2   7   7   26.40    1.31
  -3  -7  -7    0.21    0.23
   3   7   7    0.13    0.20
  -4  -7  -7    3.43    0.37
   4   7   7    3.89    0.36
  -5  -7  -7    3.95    0.41
   5   7   7    4.21    0.38
  -6  -7  -7    0.81    0.30
  -6  -7  -7    1.09    0.30
   6   7   7    0.87    0.24
  -7  -7  -7    0.91    0.32
  -7  -7  -7    1.52    0.35
  -8  -7  -7    0.97    0.34
  -9  -7  -7   -0.09    0.29
 -10  -7  -7   -0.54    0.31
   8  -8  -7    1.27    0.36
  -8   8   7    1.90    0.38
   7  -8  -7    1.01    0.34
  -7   8   7    1.26    0.34
   6  -8  -7    1.54    0.33
  -6   8   7    1.94    0.34
   5  -8  -7   -0.08    0.25
  -5   8   7    0.47    0.28
   4  -8  -7    0.03    0.25
  -4   8   7    0.32    0.25
   3  -8  -7    0.34    0.26
  -3   8   7    0.65    0.24
   2  -8  -7    0.62    0.26
  -2   8   7    0.14    0.23
   1  -8  -7    4.33    0.45
  -1   8   7    3.86    0.39
   0  -8  -7    1.07    0.27
   0   8   7    1.54    0.28
  -1  -8  -7   15.43    0.89
   1   8   7   15.54    0.85
  -2  -8  -7    0.51    0.26
   2   8   7    0.42    0.23
  -3  -8  -7    2.64    0.36
   3   8   7    2.43    0.31
  -4  -8  -7    0.57    0.27
   4   8   7    0.58    0.24
  -5  -8  -7    1.07    0.31
  -6  -8  -7    0.29    0.29
  -7  -8  -7    0.47    0.30
  -8  -8  -7    5.73    0.54
  -8  -8  -7    5.52    0.53
   6  -9  -7    9.31    0.74
  -6   9   7    8.66    0.70
   5  -9  -7    1.24    0.33
  -5   9   7    1.17    0.34
   4  -9  -7    0.45    0.31
  -4   9   7    0.17    0.27
   3  -9  -7    4.63    0.49
  -3   9   7    4.17    0.43
   2  -9  -7    1.56    0.32
  -2   9   7    0.85    0.27
   1  -9  -7   14.10    0.88
  -1   9   7   14.16    0.83
   0  -9  -7   18.68    1.06
  -1  -9  -7    8.85    0.68
  -2  -9  -7   12.12    0.80
  -3  -9  -7    0.11    0.27
  -4  -9  -7    1.79    0.36
  -5  -9  -7    1.20    0.35
  -6  -9  -7    4.62    0.50
   1 -10  -7    0.89    0.33
   0 -10  -7    9.65    0.74
  -5  -9   8    0.21    0.16
  -4  -9   8   -0.01    0.17
  -3  -9   8    1.08    0.20
  -2  -9   8   15.46    0.79
  -1  -9   8   14.05    0.75
   0  -9   8   -0.05    0.18
   1  -9   8   16.08    0.85
   2  -9   8    7.15    0.51
   3  -9   8    0.01    0.21
   4  -9   8    4.26    0.41
   5  -9   8    1.96    0.32
  -8  -8   8    3.44    0.30
  -7  -8   8    1.72    0.22
  -6  -8   8    3.57    0.31
  -5  -8   8    9.52    0.52
  -4  -8   8    0.43    0.15
  -3  -8   8    9.05    0.50
  -2  -8   8    6.89    0.42
  -1  -8   8   10.02    0.55
   0  -8   8   16.45    0.82
   1  -8   8    1.06    0.20
   2  -8   8   11.75    0.66
   3  -8   8   29.79    1.42
   4  -8   8    1.12    0.25
   5  -8   8    8.37    0.58
   6  -8   8    7.39    0.56
   7  -8   8    0.34    0.27
   8  -8   8    6.49    0.56
 -10  -7   8    5.08    0.43
  -9  -7   8    3.23    0.30
  -8  -7   8    1.87    0.22
  -8  -7   8    1.86    0.23
  -7  -7   8    1.06    0.18
  -6  -7   8   28.41    1.29
  -5  -7   8    2.70    0.24
  -4  -7   8   22.47    1.03
  -3  -7   8    1.15    0.16
  -2  -7   8   50.63    2.23
  -1  -7   8    2.37    0.22
   0  -7   8    0.21    0.14
   1  -7   8   16.73    0.82
   2  -7   8   42.45    1.92
   3  -7   8    2.42    0.26
   4  -7   8   47.82    2.18
   5  -7   8    0.98    0.23
   6  -7   8   15.53    0.85
   7  -7   8    2.78    0.35
   8  -7   8    0.86    0.29
   9  -7   8    1.86    0.35
 -11  -6   8   11.59    0.67
 -10  -6   8    2.88    0.29
  -9  -6   8    6.19    0.42
  -8  -6   8    8.35    0.47
  -7  -6   8   15.73    0.76
  -6  -6   8    0.24    0.12
  -6  -6   8    0.17    0.09
  -6  -6   8    0.25    0.12
  -5  -6   8   29.07    1.24
  -5  -6   8   26.19    1.23
  -4  -6   8   26.05    1.21
  -4  -6   8   28.57    1.22
  -3  -6   8    7.66    0.38
  -3  -6   8    7.26    0.38
  -2  -6   8   17.98    0.85
  -2  -6   8   19.54    0.86
  -1  -6   8    3.24    0.23
  -1  -6   8    4.02    0.25
   0  -6   8    0.13    0.09
   0  -6   8    0.18    0.11
   1  -6   8    7.85    0.43
   1  -6   8    9.11    0.46
   2  -6   8    0.59    0.16
   3  -6   8   42.37    1.91
   4  -6   8    0.70    0.18
   5  -6   8   20.13    1.00
   6  -6   8    2.39    0.30
   7  -6   8   17.63    0.94
   8  -6   8    4.73    0.42
   9  -6   8    1.15    0.32
  10  -6   8    4.98    0.49
  11  -6   8   23.85    1.29
 -12  -5   8    0.52    0.22
 -11  -5   8    0.72    0.20
 -10  -5   8    0.53    0.18
  -9  -5   8   10.48    0.56
  -8  -5   8    0.37    0.14
  -7  -5   8   12.09    0.56
  -7  -5   8   10.28    0.53
  -6  -5   8   51.56    2.36
  -6  -5   8   56.87    2.37
  -5  -5   8    5.67    0.30
  -5  -5   8    5.15    0.28
  -4  -5   8    1.59    0.13
  -4  -5   8    1.67    0.15
  -3  -5   8   16.02    0.76
  -3  -5   8   17.77    0.76
  -2  -5   8    8.12    0.39
  -2  -5   8    8.18    0.39
  -1  -5   8    1.00    0.12
  -1  -5   8    0.94    0.10
   0  -5   8    6.39    0.34
   0  -5   8    5.90    0.32
   1  -5   8   14.36    0.67
   1  -5   8   13.48    0.65
   2  -5   8    0.55    0.13
   2  -5   8    0.25    0.06
  -3   5  -8    0.59    0.12
   3  -5   8    0.44    0.10
   3  -5   8    0.41    0.14
  -4   5  -8    0.31    0.12
   4  -5   8    0.42    0.15
  -5   5  -8    3.25    0.27
   5  -5   8    3.39    0.29
  -6   5  -8    5.13    0.35
   6  -5   8    4.37    0.40
  -7   5  -8    9.48    0.56
   7  -5   8   10.14    0.61
   8  -5   8    2.04    0.31
   9  -5   8   10.72    0.70
  10  -5   8    8.17    0.63
  11  -5   8   -0.06    0.28
  12  -5   8    2.42    0.41
 -13  -4   8    0.07    0.21
 -12  -4   8    0.39    0.21
 -11  -4   8    0.37    0.19
 -10  -4   8    0.04    0.16
  -9  -4   8    7.38    0.44
  -8  -4   8    2.91    0.23
  -7  -4   8    6.22    0.34
  -7  -4   8    6.85    0.36
  -6  -4   8   10.25    0.46
  -6  -4   8    8.77    0.45
  -5  -4   8    1.48    0.12
  -5  -4   8    1.33    0.12
  -4  -4   8    0.17    0.05
  -2  -4   8    0.11    0.06
  -2  -4   8    0.10    0.05
  -1  -4   8    6.50    0.32
  -1  -4   8    6.81    0.32
   0  -4   8   17.61    0.82
   0  -4   8   18.77    0.82
   1  -4   8    2.28    0.18
   1  -4   8    2.46    0.19
  -2   4  -8   10.28    0.49
   2  -4   8   10.44    0.52
  -3   4  -8    0.30    0.09
   3  -4   8    0.10    0.09
   3  -4   8    0.23    0.12
  -4   4  -8    0.43    0.12
   4  -4   8    0.28    0.10
   4  -4   8    0.45    0.14
  -5   4  -8   22.07    0.97
   5  -4   8   21.17    1.00
   5  -4   8   18.53    0.98
  -6   4  -8    0.15    0.14
   6  -4   8    0.20    0.17
  -7   4  -8    1.47    0.21
   7  -4   8    1.93    0.26
  -8   4  -8    0.20    0.18
   8  -4   8    0.44    0.20
  -9   4  -8    0.20    0.20
   9  -4   8    0.47    0.23
 -10   4  -8    2.32    0.32
  10  -4   8    1.60    0.33
 -11   4  -8    0.39    0.26
  11  -4   8    0.68    0.30
  12  -4   8    0.85    0.34
 -13  -3   8   -0.01    0.21
 -12  -3   8   13.46    0.74
 -11  -3   8    1.88    0.25
 -10  -3   8   16.61    0.83
  -9  -3   8    0.25    0.15
  -8  -3   8    3.53    0.25
  -8  -3   8    3.99    0.28
  -7  -3   8    0.12    0.08
  -7  -3   8   -0.05    0.10
  -6  -3   8   27.02    1.25
  -6  -3   8   29.64    1.26
  -5  -3   8   17.44    0.75
  -5  -3   8   15.92    0.74
  -4  -3   8   39.90    1.72
  -1  -3   8    0.20    0.05
  -1  -3   8    0.13    0.05
   0  -3   8    3.34    0.19
   0  -3   8    2.87    0.18
   1  -3   8   90.69    3.77
   1  -3   8   83.32    3.76
  -2   3  -8    4.86    0.27
   2  -3   8    5.13    0.30
  -3   3  -8    3.48    0.23
   3  -3   8    3.49    0.26
   3  -3   8    3.24    0.23
  -4   3  -8   11.92    0.57
   4  -3   8   10.41    0.57
   4  -3   8   12.23    0.59
  -5   3  -8    2.98    0.24
   5  -3   8    2.42    0.24
  -6   3  -8   12.30    0.64
   6  -3   8   12.65    0.67
  -7   3  -8    2.10    0.24
   7  -3   8    1.79    0.24
  -8   3  -8   -0.06    0.16
   8  -3   8    0.29    0.20
  -9   3  -8    5.79    0.46
   9  -3   8    5.80    0.49
 -10   3  -8    7.22    0.55
  10  -3   8    8.42    0.60
 -11   3  -8    0.33    0.26
  11  -3   8   -0.13    0.25
 -12   3  -8   21.40    1.15
  12  -3   8   21.25    1.18
 -13   3  -8    0.58    0.32
  13  -3   8    0.47    0.32
 -14  -2   8    0.09    0.24
 -13  -2   8    0.80    0.26
 -12  -2   8    2.13    0.28
 -11  -2   8    6.43    0.44
 -10  -2   8   23.88    1.14
  -9  -2   8    0.82    0.17
  -8  -2   8   27.26    1.30
  -8  -2   8   30.30    1.31
  -7  -2   8   36.47    1.69
  -7  -2   8   39.94    1.70
  -6  -2   8    0.30    0.09
  -6  -2   8    0.37    0.10
  -5  -2   8  116.88    5.16
  -5  -2   8  122.98    5.17
  -4  -2   8   21.22    0.91
  -4  -2   8   20.16    0.91
  -3  -2   8   65.22    2.72
  -3  -2   8   61.10    2.72
  -2  -2   8   77.80    3.43
  -2  -2   8   81.64    3.43
  -1  -2   8    0.06    0.05
  -1  -2   8    0.04    0.05
   0  -2   8    0.25    0.07
   0  -2   8    0.10    0.07
  -1   2  -8    0.83    0.09
   1  -2   8    0.87    0.10
   1  -2   8    1.06    0.11
  -2   2  -8   30.84    1.37
   2  -2   8   33.33    1.39
   2  -2   8   29.23    1.38
  -3   2  -8    4.59    0.27
   3  -2   8    4.78    0.28
   3  -2   8    4.70    0.30
  -4   2  -8    0.24    0.11
   4  -2   8    0.24    0.12
   4  -2   8    0.31    0.10
  -5   2  -8   35.82    1.58
   5  -2   8   34.01    1.59
  -6   2  -8    6.05    0.40
   6  -2   8    6.54    0.42
  -7   2  -8    5.03    0.37
   7  -2   8    4.63    0.38
  -8   2  -8    3.20    0.29
   8  -2   8    2.79    0.29
  -9   2  -8    2.32    0.28
   9  -2   8    1.79    0.27
 -10   2  -8    6.35    0.50
  10  -2   8    5.95    0.52
 -11   2  -8   39.08    1.86
  11  -2   8   39.24    1.88
 -12   2  -8    0.01    0.28
  12  -2   8    0.03    0.27
 -13   2  -8    6.71    0.61
  13  -2   8    7.35    0.65
 -14  -1   8    3.57    0.40
 -13  -1   8    1.06    0.27
 -12  -1   8    3.13    0.33
 -11  -1   8   17.06    0.88
 -10  -1   8    0.03    0.17
  -9  -1   8   17.15    0.85
   8   1  -8    9.08    0.47
  -8  -1   8    9.17    0.49
  -8  -1   8   10.51    0.52
   7   1  -8   48.18    2.21
  -7  -1   8   53.38    2.24
   6   1  -8   22.77    1.05
  -6  -1   8   24.88    1.08
  -6  -1   8   23.72    1.07
  -5  -1   8   12.21    0.55
  -5  -1   8   10.50    0.53
  -4  -1   8    4.20    0.24
  -4  -1   8    4.25    0.24
  -3  -1   8   11.90    0.56
  -3  -1   8   12.56    0.56
  -2  -1   8   17.78    0.77
  -2  -1   8   16.57    0.77
   1   1  -8  296.12   12.95
  -1  -1   8  298.09   13.01
  -1  -1   8  312.39   13.05
   0   1  -8    2.45    0.16
   0  -1   8    2.37    0.17
   0  -1   8    2.67    0.18
  -1   1  -8   50.71    2.25
   1  -1   8   52.54    2.26
  -2   1  -8   69.72    2.99
   2  -1   8   66.34    2.99
   2  -1   8   70.10    3.00
  -3   1  -8   47.58    1.99
   3  -1   8   41.59    1.99
   3  -1   8   46.33    2.00
  -4   1  -8   52.25    2.25
   4  -1   8   47.17    2.24
   4  -1   8   53.25    2.26
  -5   1  -8   20.60    0.97
  -6   1  -8    3.19    0.26
   6  -1   8    2.68    0.25
  -7   1  -8   53.20    2.40
   7  -1   8   54.07    2.41
  -8   1  -8    0.34    0.19
   8  -1   8    0.26    0.18
  -9   1  -8   49.96    2.33
   9  -1   8   52.93    2.35
 -10   1  -8    0.45    0.24
  10  -1   8    0.56    0.22
 -11   1  -8    0.94    0.27
  11  -1   8    1.39    0.30
 -12   1  -8   10.85    0.72
  12  -1   8   10.84    0.73
 -13   1  -8    1.05    0.32
  13  -1   8    1.05    0.33
 -14   0   8    4.44    0.45
 -13   0   8    6.59    0.56
 -12   0   8    1.19    0.26
 -11   0   8    0.40    0.20
 -10   0   8    5.64    0.43
   9   0  -8    2.43    0.22
  -9   0   8    2.46    0.26
   8   0  -8   13.16    0.64
  -8   0   8   11.84    0.64
  -8   0   8   14.04    0.67
   7   0  -8    0.62    0.13
  -7   0   8    0.58    0.16
  -7   0   8    0.84    0.13
   6   0  -8   29.68    1.31
  -6   0   8   31.10    1.33
  -6   0   8   27.07    1.31
   5   0  -8    0.54    0.10
  -5   0   8    0.42    0.10
  -5   0   8    0.66    0.13
   4   0  -8   36.02    1.61
  -4   0   8   37.49    1.63
   3   0  -8   15.45    0.70
  -3   0   8   15.70    0.72
   2   0  -8   45.90    2.03
  -2   0   8   47.45    2.04
   1   0  -8    1.06    0.11
  -1   0   8    0.92    0.12
   0   0  -8  166.71    6.94
   0   0   8  161.45    6.94
   0   0   8  155.14    6.94
  -1   0  -8   86.91    3.63
   1   0   8   78.52    3.62
   1   0   8   85.09    3.63
  -2   0  -8  377.84   16.24
   2   0   8  378.31   16.33
   2   0   8  368.63   16.29
  -3   0  -8  160.92    6.66
   3   0   8  160.71    6.66
   3   0   8  140.46    6.65
  -4   0  -8   30.63    1.41
   4   0   8   31.64    1.42
  -5   0  -8   36.12    1.64
   5   0   8   36.56    1.65
  -6   0  -8  114.80    5.09
   6   0   8  118.70    5.10
  -7   0  -8    1.40    0.21
   7   0   8    1.19    0.20
  -8   0  -8   16.52    0.84
   8   0   8   16.06    0.85
  -9   0  -8    2.43    0.29
   9   0   8    3.14    0.32
 -10   0  -8   28.07    1.36
  10   0   8   27.52    1.37
 -11   0  -8    0.30    0.26
  11   0   8    0.89    0.27
 -12   0  -8   12.02    0.78
  12   0   8   12.63    0.79
 -13   0  -8    0.12    0.29
  13   0   8    0.55    0.31
 -14   0  -8    5.12    0.52
  14   0   8    4.94    0.52
 -14   1   8    3.82    0.43
 -13   1   8    1.25    0.31
 -12   1   8    3.57    0.37
 -11   1   8   18.65    0.98
 -10   1   8    0.19    0.21
   9  -1  -8   16.92    0.87
  -9   1   8   18.81    0.90
   8  -1  -8    9.42    0.53
  -8   1   8   10.22    0.56
   7  -1  -8   50.77    2.17
  -7   1   8   51.72    2.19
  -7   1   8   44.02    2.16
   6  -1  -8   25.30    1.07
  -6   1   8   21.66    1.06
  -6   1   8   22.28    1.07
   5  -1  -8   11.16    0.54
  -5   1   8   10.00    0.54
  -5   1   8   11.94    0.57
   4  -1  -8    4.69    0.27
  -4   1   8    4.40    0.29
  -4   1   8    3.97    0.27
   3  -1  -8   12.03    0.58
  -3   1   8   12.52    0.59
  -3   1   8   11.83    0.58
   2  -1  -8   17.31    0.79
  -2   1   8   16.35    0.79
  -2   1   8   17.68    0.80
   1  -1  -8  312.78   13.08
  -1   1   8  298.87   13.08
  -1   1   8  309.78   13.22
  -1   1   8  296.65   13.08
   0  -1  -8    2.58    0.21
   0   1   8    2.32    0.20
   0   1   8    2.51    0.20
  -1  -1  -8   51.42    2.24
  -1  -1  -8   51.78    2.24
   1   1   8   47.98    2.24
   1   1   8   52.25    2.24
  -2  -1  -8   72.17    2.97
   2   1   8   69.13    2.97
   2   1   8   62.01    2.96
  -3  -1  -8   45.70    2.07
   3   1   8   47.75    2.08
  -4  -1  -8   54.40    2.39
   4   1   8   53.36    2.39
  -5  -1  -8   19.77    0.94
   5   1   8   19.20    0.94
  -6  -1  -8    3.08    0.26
   6   1   8    2.24    0.24
  -7  -1  -8   53.56    2.41
   7   1   8   53.76    2.42
  -8  -1  -8    0.23    0.17
   8   1   8   -0.05    0.17
  -9  -1  -8   48.94    2.27
   9   1   8   50.67    2.29
 -10  -1  -8    0.17    0.22
  10   1   8    0.27    0.22
 -11  -1  -8    0.88    0.28
  11   1   8    0.93    0.27
 -12  -1  -8   11.92    0.76
  12   1   8   10.33    0.74
 -13  -1  -8    1.50    0.36
  13   1   8    1.03    0.32
 -14   2   8    0.09    0.32
 -13   2   8    0.91    0.31
 -12   2   8    1.79    0.34
 -11   2   8    7.46    0.57
  10  -2  -8   22.83    1.17
 -10   2   8   25.50    1.20
   9  -2  -8    0.82    0.19
  -9   2   8    0.56    0.22
   8  -2  -8   31.49    1.52
  -8   2   8   34.65    1.55
   7  -2  -8   42.23    1.92
  -7   2   8   43.25    1.94
   6  -2  -8    0.37    0.14
  -6   2   8    0.50    0.17
   5  -2  -8  124.17    5.34
  -5   2   8  121.71    5.34
   4  -2  -8   21.11    0.96
  -4   2   8   21.23    0.97
  -4   2   8   19.04    0.95
   3  -2  -8   67.48    2.81
  -3   2   8   57.89    2.80
  -3   2   8   66.59    2.81
   2  -2  -8   80.41    3.42
  -2   2   8   71.33    3.41
  -2   2   8   82.97    3.42
   1  -2  -8    0.00    0.11
  -1   2   8    0.03    0.09
  -1   2   8    0.02    0.13
  -1   2   8    0.14    0.10
   0  -2  -8    0.34    0.13
   0   2   8    0.19    0.13
  -1  -2  -8    1.10    0.16
   1   2   8    0.95    0.16
  -2  -2  -8   32.60    1.48
   2   2   8   32.76    1.48
  -3  -2  -8    4.40    0.32
   3   2   8    4.62    0.33
  -4  -2  -8    0.13    0.14
   4   2   8    0.24    0.14
  -5  -2  -8   36.30    1.65
   5   2   8   35.64    1.65
  -6  -2  -8    6.08    0.42
   6   2   8    6.00    0.42
  -7  -2  -8    4.63    0.40
   7   2   8    5.56    0.42
  -8  -2  -8    2.83    0.30
   8   2   8    3.43    0.34
  -9  -2  -8    2.17    0.28
   9   2   8    1.66    0.27
 -10  -2  -8    7.81    0.57
  10   2   8    7.01    0.55
 -11  -2  -8   39.92    1.86
  11   2   8   37.84    1.85
 -12  -2  -8    0.11    0.28
  12   2   8    0.02    0.24
 -13  -2  -8    8.34    0.68
  13   2   8    7.79    0.65
 -13   3   8    0.48    0.32
 -12   3   8   16.00    0.94
 -11   3   8    1.40    0.31
  10  -3  -8   15.75    0.89
 -10   3   8   18.44    0.94
   9  -3  -8    0.22    0.19
  -9   3   8    0.39    0.23
   8  -3  -8    4.29    0.38
  -8   3   8    4.11    0.36
   7  -3  -8    0.08    0.16
  -7   3   8    0.21    0.20
   6  -3  -8   29.36    1.34
  -6   3   8   28.18    1.35
   5  -3  -8   17.20    0.85
  -5   3   8   16.97    0.85
   4  -3  -8   41.82    1.91
  -4   3   8   43.42    1.92
   3  -3  -8    8.94    0.49
  -3   3   8    8.53    0.50
   2  -3  -8    4.52    0.33
  -2   3   8    4.35    0.33
   1  -3  -8    0.34    0.13
  -1   3   8    0.14    0.13
   0  -3  -8    2.85    0.25
   0   3   8    3.00    0.25
  -1  -3  -8   92.49    3.94
   1   3   8   87.40    3.93
  -2  -3  -8    5.34    0.37
  -2  -3  -8    5.47    0.37
   2   3   8    4.92    0.36
  -3  -3  -8    3.88    0.33
  -4  -3  -8   12.48    0.66
   4   3   8   12.26    0.66
  -5  -3  -8    2.21    0.25
   5   3   8    2.95    0.27
  -6  -3  -8   13.07    0.70
   6   3   8   12.85    0.70
  -7  -3  -8    2.39    0.29
   7   3   8    1.86    0.25
  -8  -3  -8    0.16    0.19
   8   3   8    0.05    0.19
  -9  -3  -8    5.94    0.50
   9   3   8    5.75    0.47
 -10  -3  -8    7.77    0.58
  10   3   8    6.83    0.55
 -11  -3  -8    0.13    0.25
  11   3   8    0.05    0.25
 -12  -3  -8   20.23    1.11
  12   3   8   19.43    1.09
 -13  -3  -8    0.75    0.33
 -13   4   8   -0.40    0.32
 -12   4   8    0.76    0.33
 -11   4   8    0.60    0.30
  10  -4  -8    0.06    0.21
 -10   4   8   -0.10    0.25
   9  -4  -8    8.66    0.58
  -9   4   8    8.02    0.59
   8  -4  -8    3.22    0.33
  -8   4   8    2.80    0.34
   7  -4  -8    8.08    0.53
  -7   4   8    7.54    0.54
   6  -4  -8    9.89    0.59
  -6   4   8    9.99    0.60
   5  -4  -8    1.36    0.22
  -5   4   8    1.02    0.21
   4  -4  -8    0.20    0.16
  -4   4   8    0.03    0.15
   3  -4  -8    0.31    0.17
  -3   4   8    0.36    0.16
   2  -4  -8    0.09    0.15
  -2   4   8    0.14    0.15
   1  -4  -8    6.48    0.41
  -1   4   8    6.20    0.41
   0  -4  -8   19.54    0.95
   0   4   8   19.05    0.94
  -1  -4  -8    2.21    0.24
   1   4   8    2.47    0.25
  -2  -4  -8   11.50    0.62
   2   4   8   10.86    0.61
  -3  -4  -8    0.12    0.16
  -3  -4  -8    0.16    0.16
   3   4   8    0.28    0.16
  -4  -4  -8    0.35    0.19
   4   4   8    0.52    0.17
  -5  -4  -8   22.91    1.14
   5   4   8   23.35    1.13
  -6  -4  -8    0.17    0.19
   6   4   8   -0.04    0.16
  -7  -4  -8    1.53    0.27
   7   4   8    1.26    0.23
  -8  -4  -8    0.68    0.26
   8   4   8    0.32    0.22
  -9  -4  -8    0.16    0.23
   9   4   8   -0.06    0.20
 -10  -4  -8    1.69    0.32
  10   4   8    1.79    0.28
 -11  -4  -8    0.52    0.30
  11   4   8    0.70    0.26
 -12  -4  -8    0.68    0.36
 -12   5   8    0.34    0.35
 -11   5   8    0.49    0.33
  10  -5  -8    1.19    0.31
 -10   5   8    0.52    0.29
   9  -5  -8   10.56    0.68
  -9   5   8    9.83    0.69
   8  -5  -8    0.34    0.25
  -8   5   8    0.28    0.25
   7  -5  -8   12.24    0.74
  -7   5   8   13.16    0.75
   6  -5  -8   60.56    2.77
  -6   5   8   62.11    2.77
   5  -5  -8    5.27    0.44
  -5   5   8    6.10    0.46
   4  -5  -8    1.34    0.23
  -4   5   8    1.60    0.23
   3  -5  -8   17.89    0.92
  -3   5   8   18.21    0.92
   2  -5  -8    8.40    0.53
  -2   5   8    8.32    0.52
   1  -5  -8    0.97    0.21
  -1   5   8    0.71    0.18
   0  -5  -8    6.23    0.45
   0   5   8    6.57    0.44
  -1  -5  -8   14.99    0.79
   1   5   8   14.57    0.77
  -2  -5  -8    0.50    0.19
   2   5   8    1.15    0.22
  -3  -5  -8    0.69    0.20
   3   5   8    0.39    0.19
  -4  -5  -8    0.58    0.22
  -4  -5  -8    0.38    0.22
   4   5   8    0.59    0.20
  -5  -5  -8    3.28    0.34
   5   5   8    4.49    0.37
  -6  -5  -8    5.51    0.48
   6   5   8    4.73    0.40
  -7  -5  -8   11.15    0.70
   7   5   8   10.68    0.66
  -8  -5  -8    1.97    0.34
   8   5   8    1.19    0.26
  -9  -5  -8   10.30    0.70
   9   5   8   10.26    0.67
 -10  -5  -8    7.96    0.66
  10   5   8    7.79    0.59
 -11  -5  -8    0.39    0.32
 -12  -5  -8    2.27    0.42
 -11   6   8   11.82    0.84
  10  -6  -8    2.40    0.39
 -10   6   8    3.48    0.43
   9  -6  -8    6.61    0.56
  -9   6   8    6.66    0.57
   8  -6  -8    8.51    0.65
  -8   6   8   10.07    0.68
   7  -6  -8   17.74    0.98
  -7   6   8   18.31    0.99
   6  -6  -8    0.09    0.22
  -6   6   8    0.23    0.24
   5  -6  -8   30.08    1.52
  -5   6   8   33.00    1.52
   4  -6  -8   29.52    1.45
  -4   6   8   30.88    1.45
   3  -6  -8    7.57    0.56
  -3   6   8    9.07    0.56
   2  -6  -8   19.58    1.03
  -2   6   8   21.05    1.03
   1  -6  -8    3.81    0.35
  -1   6   8    3.63    0.33
   0  -6  -8    0.14    0.19
   0   6   8    0.36    0.20
  -1  -6  -8   10.48    0.64
   1   6   8   10.19    0.61
  -2  -6  -8    0.15    0.21
   2   6   8    0.50    0.20
  -3  -6  -8   47.09    2.12
   3   6   8   44.46    2.10
  -4  -6  -8    1.09    0.25
   4   6   8    0.76    0.21
  -5  -6  -8   20.96    1.09
  -5  -6  -8   21.21    1.10
   5   6   8   20.81    1.06
  -6  -6  -8    2.65    0.34
  -6  -6  -8    2.22    0.34
   6   6   8    2.48    0.31
  -7  -6  -8   17.72    0.99
   7   6   8   17.07    0.93
  -8  -6  -8    5.01    0.48
   8   6   8    4.76    0.43
  -9  -6  -8    1.00    0.32
 -10  -6  -8    6.99    0.63
 -11  -6  -8   22.82    1.28
  10  -7  -8    4.52    0.51
 -10   7   8    5.02    0.52
   9  -7  -8    3.28    0.43
  -9   7   8    4.06    0.47
   8  -7  -8    1.48    0.35
  -8   7   8    1.65    0.36
   7  -7  -8    1.11    0.31
  -7   7   8    1.17    0.31
   6  -7  -8   30.76    1.52
  -6   7   8   30.25    1.51
   5  -7  -8    3.04    0.37
  -5   7   8    2.84    0.36
   4  -7  -8   24.81    1.27
  -4   7   8   25.13    1.26
   3  -7  -8    1.44    0.30
  -3   7   8    1.46    0.28
   2  -7  -8   54.27    2.50
  -2   7   8   54.66    2.49
   1  -7  -8    2.84    0.35
  -1   7   8    2.67    0.32
   0  -7  -8    0.20    0.24
   0   7   8    0.43    0.22
  -1  -7  -8   17.44    0.95
   1   7   8   17.40    0.92
  -2  -7  -8   45.79    2.08
   2   7   8   42.75    2.04
  -3  -7  -8    2.82    0.36
   3   7   8    3.09    0.33
  -4  -7  -8   53.60    2.39
   4   7   8   48.86    2.35
  -5  -7  -8    0.69    0.28
   5   7   8    0.99    0.25
  -6  -7  -8   17.44    0.99
  -6  -7  -8   18.83    1.02
   6   7   8   16.28    0.94
  -7  -7  -8    3.47    0.42
  -7  -7  -8    3.03    0.43
   7   7   8    2.08    0.35
  -8  -7  -8    0.77    0.36
  -8  -7  -8    0.71    0.33
  -9  -7  -8    2.27    0.41
   8  -8  -8    3.82    0.47
  -8   8   8    4.07    0.48
   7  -8  -8    1.19    0.33
  -7   8   8    1.04    0.34
   6  -8  -8    2.65    0.39
  -6   8   8    4.05    0.45
   5  -8  -8   10.23    0.73
  -5   8   8    9.98    0.71
   4  -8  -8    0.58    0.28
  -4   8   8    0.24    0.27
   3  -8  -8    9.35    0.68
  -3   8   8    9.32    0.65
   2  -8  -8    7.38    0.59
  -2   8   8    7.35    0.57
   1  -8  -8   10.66    0.71
  -1   8   8    9.54    0.66
   0  -8  -8   17.52    1.00
   0   8   8   18.38    0.97
  -1  -8  -8    0.18    0.26
   1   8   8    1.22    0.28
  -2  -8  -8   11.52    0.74
   2   8   8   10.78    0.70
  -3  -8  -8   33.37    1.58
   3   8   8   29.95    1.53
  -4  -8  -8    1.54    0.31
   4   8   8    1.13    0.27
  -5  -8  -8    8.46    0.67
  -6  -8  -8    7.60    0.66
  -7  -8  -8    0.24    0.31
  -8  -8  -8    8.86    0.72
  -8  -8  -8    6.90    0.64
   5  -9  -8   -0.03    0.29
  -5   9   8    0.75    0.32
   4  -9  -8    0.33    0.32
  -4   9   8    0.50    0.30
   3  -9  -8    1.01    0.31
  -3   9   8    1.27    0.33
   2  -9  -8   16.66    0.99
  -2   9   8   16.26    0.94
   1  -9  -8   16.16    0.93
  -1   9   8   13.61    0.87
   0  -9  -8    0.48    0.31
   0   9   8   -0.04    0.25
  -1  -9  -8   17.65    1.03
  -2  -9  -8    7.58    0.65
  -3  -9  -8    0.29    0.29
  -4  -9  -8    4.18    0.48
  -5  -9  -8    2.54    0.41
  -5  -9   9    2.49    0.24
  -4  -9   9    0.27    0.16
  -3  -9   9    4.17    0.34
  -2  -9   9    1.55    0.22
  -1  -9   9    2.29    0.26
   0  -9   9    6.97    0.48
   1  -9   9   11.24    0.65
   2  -9   9    0.01    0.20
   3  -9   9    1.51    0.28
   4  -9   9    0.72    0.25
  -7  -8   9    0.56    0.16
  -6  -8   9    0.65    0.16
  -5  -8   9    1.19    0.17
  -4  -8   9    0.39    0.14
  -3  -8   9    7.60    0.43
  -2  -8   9   10.35    0.55
  -1  -8   9   -0.09    0.14
   0  -8   9    2.95    0.27
   1  -8   9    5.63    0.41
   2  -8   9    2.22    0.26
   3  -8   9   -0.12    0.18
   4  -8   9    0.70    0.23
   5  -8   9    0.01    0.21
   6  -8   9    1.92    0.32
   7  -8   9    0.36    0.27
  -9  -7   9    0.24    0.18
  -8  -7   9    0.67    0.17
  -7  -7   9    1.68    0.19
  -6  -7   9    0.14    0.12
  -5  -7   9    3.21    0.24
  -4  -7   9    2.59    0.22
  -3  -7   9    8.65    0.45
  -2  -7   9    4.24    0.29
  -1  -7   9    5.34    0.34
   0  -7   9    7.80    0.45
   1  -7   9    3.17    0.27
   2  -7   9    3.84    0.33
   3  -7   9    1.31    0.22
   4  -7   9    5.59    0.43
   5  -7   9    0.02    0.19
   6  -7   9    0.26    0.22
   7  -7   9    0.66    0.26
   8  -7   9    0.63    0.27
   9  -7   9    1.13    0.32
 -11  -6   9   -0.06    0.20
 -10  -6   9    0.08    0.18
  -9  -6   9    0.29    0.17
  -8  -6   9    1.07    0.18
  -7  -6   9    8.94    0.47
  -6  -6   9   17.64    0.79
  -6  -6   9   16.52    0.78
  -5  -6   9    1.84    0.15
  -5  -6   9    1.38    0.13
  -4  -6   9    4.61    0.25
  -4  -6   9    4.11    0.24
  -3  -6   9    6.82    0.35
  -3  -6   9    7.26    0.36
  -2  -6   9    0.08    0.08
  -2  -6   9    0.08    0.09
  -1  -6   9    1.87    0.17
  -1  -6   9    2.01    0.17
   0  -6   9   37.03    1.57
   0  -6   9   33.23    1.56
   1  -6   9    0.08    0.12
   1  -6   9    0.02    0.09
   2  -6   9   12.13    0.63
   3  -6   9    1.15    0.19
   4  -6   9    3.04    0.29
   5  -6   9    4.61    0.39
   6  -6   9    8.91    0.57
   7  -6   9    3.14    0.34
   8  -6   9    0.25    0.25
   9  -6   9    3.40    0.40
  10  -6   9    2.45    0.37
 -12  -5   9    0.30    0.21
 -11  -5   9    2.21    0.26
 -10  -5   9   15.44    0.78
  -9  -5   9   21.30    1.00
  -8  -5   9    2.74    0.22
  -7  -5   9   24.65    1.07
  -7  -5   9   22.58    1.06
  -6  -5   9    2.26    0.16
  -6  -5   9    2.23    0.18
  -5  -5   9   14.70    0.65
  -5  -5   9   14.87    0.65
  -5  -5   9   13.67    0.65
  -4  -5   9    4.55    0.24
  -4  -5   9    5.01    0.24
  -3  -5   9   11.41    0.52
  -2  -5   9   12.82    0.60
  -2  -5   9   13.57    0.60
  -1  -5   9   38.28    1.64
  -1  -5   9   36.64    1.64
   0  -5   9   49.72    2.10
   0  -5   9   46.23    2.10
   1  -5   9   30.42    1.34
   1  -5   9   29.32    1.33
   2  -5   9    1.32    0.17
   2  -5   9    1.27    0.14
  -3   5  -9   20.23    0.91
   3  -5   9   21.96    0.96
   3  -5   9   18.02    0.93
  -4   5  -9    8.66    0.47
   4  -5   9    9.35    0.51
   5  -5   9    3.86    0.35
   6  -5   9   26.94    1.30
   7  -5   9   13.65    0.77
   8  -5   9   26.19    1.30
   9  -5   9   14.85    0.86
  10  -5   9    5.02    0.47
  11  -5   9    2.75    0.40
 -12  -4   9    3.22    0.32
 -11  -4   9    3.93    0.33
 -10  -4   9   20.59    0.99
  -9  -4   9   16.38    0.79
  -8  -4   9   62.96    2.76
  -7  -4   9    1.18    0.14
  -7  -4   9    1.27    0.13
  -6  -4   9   68.21    3.04
  -6  -4   9   72.26    3.04
  -5  -4   9   43.38    1.87
  -5  -4   9   42.78    1.87
  -1  -4   9   11.86    0.53
  -1  -4   9   11.38    0.53
   0  -4   9   43.46    1.99
   0  -4   9   47.89    2.00
   1  -4   9   27.86    1.23
   1  -4   9   26.82    1.22
   2  -4   9   21.88    1.04
   2  -4   9   24.15    1.06
  -3   4  -9    3.97    0.25
   3  -4   9    4.16    0.29
   3  -4   9    3.57    0.25
  -4   4  -9   69.30    2.92
   4  -4   9   61.31    2.92
   4  -4   9   68.99    2.94
  -5   4  -9   52.27    2.35
   5  -4   9   53.84    2.38
  -6   4  -9   17.05    0.87
   6  -4   9   18.88    0.91
  -7   4  -9   45.22    2.08
   7  -4   9   47.09    2.11
  -8   4  -9   33.23    1.55
   8  -4   9   32.91    1.58
  -9   4  -9   12.42    0.71
   9  -4   9   12.39    0.76
  10  -4   9   26.71    1.36
  11  -4   9    3.60    0.43
  12  -4   9    2.78    0.41
 -13  -3   9    3.45    0.36
 -12  -3   9   16.67    0.87
 -11  -3   9    0.28    0.18
 -10  -3   9   29.92    1.38
  -9  -3   9    8.00    0.46
  -8  -3   9    3.66    0.25
  -8  -3   9    4.33    0.29
  -7  -3   9   29.05    1.32
  -7  -3   9   30.39    1.33
  -6  -3   9   12.58    0.55
  -6  -3   9   10.78    0.54
  -5  -3   9   51.76    2.31
  -5  -3   9   54.91    2.31
  -1  -3   9    0.62    0.08
  -1  -3   9    0.63    0.07
   0  -3   9   16.87    0.72
   0  -3   9   15.03    0.72
   1  -3   9   16.96    0.80
   1  -3   9   18.35    0.81
  -2   3  -9    3.06    0.19
   2  -3   9    2.93    0.23
  -3   3  -9   31.31    1.37
   3  -3   9   32.05    1.39
   3  -3   9   29.02    1.38
  -4   3  -9   20.09    0.91
   4  -3   9   20.88    0.93
   4  -3   9   17.62    0.91
  -5   3  -9   14.69    0.71
   5  -3   9   14.19    0.73
  -6   3  -9   27.76    1.31
   6  -3   9   28.77    1.33
  -7   3  -9    2.27    0.25
   7  -3   9    2.30    0.27
  -8   3  -9    9.29    0.58
   8  -3   9   10.59    0.62
  -9   3  -9   33.11    1.59
   9  -3   9   34.06    1.62
 -10   3  -9    1.30    0.28
  10  -3   9    1.89    0.33
 -11   3  -9   31.49    1.58
  11  -3   9   33.49    1.62
 -12   3  -9   11.40    0.77
  12  -3   9   12.05    0.81
  13  -3   9    2.52    0.42
 -13  -2   9   11.37    0.70
 -12  -2   9    0.54    0.23
 -11  -2   9    8.25    0.52
 -10  -2   9    0.40    0.17
  -9  -2   9   20.92    1.00
  -8  -2   9    9.47    0.47
  -8  -2   9    7.70    0.44
  -7  -2   9    0.23    0.09
  -7  -2   9    0.33    0.12
  -6  -2   9    2.63    0.19
  -6  -2   9    2.83    0.21
  -5  -2   9   23.34    1.07
  -5  -2   9   25.12    1.08
  -4  -2   9   25.34    1.14
  -4  -2   9   26.63    1.14
  -3  -2   9   62.67    2.77
  -3  -2   9   66.11    2.78
  -2  -2   9    4.78    0.24
  -2  -2   9    5.03    0.24
  -1  -2   9   83.93    3.54
  -1  -2   9   80.35    3.54
   0  -2   9    2.93    0.19
   0  -2   9    3.05    0.18
  -1   2  -9    0.08    0.06
   1  -2   9    0.08    0.07
   1  -2   9    0.24    0.09
  -2   2  -9   14.09    0.65
   2  -2   9   14.70    0.67
   2  -2   9   13.23    0.66
  -3   2  -9  104.55    4.55
   3  -2   9  109.39    4.57
   3  -2   9  101.57    4.56
  -4   2  -9   60.20    2.58
   4  -2   9   53.59    2.58
   4  -2   9   62.13    2.59
  -5   2  -9   59.02    2.61
   5  -2   9   59.07    2.62
  -6   2  -9    0.39    0.15
   6  -2   9    0.33    0.16
  -7   2  -9    0.32    0.16
   7  -2   9    0.56    0.20
  -8   2  -9    5.43    0.41
   8  -2   9    5.04    0.43
  -9   2  -9    0.29    0.21
   9  -2   9    0.05    0.20
 -10   2  -9    0.16    0.22
  10  -2   9    0.52    0.25
 -11   2  -9    1.10    0.27
  11  -2   9    1.12    0.30
 -12   2  -9   21.54    1.16
  12  -2   9   22.75    1.20
 -13   2  -9    3.33    0.42
  13  -2   9    4.45    0.49
 -13  -1   9    0.65    0.25
 -12  -1   9    2.31    0.30
 -11  -1   9    0.06    0.19
 -10  -1   9    0.70    0.19
  -9  -1   9    8.50    0.50
  -8  -1   9    0.85    0.16
  -7  -1   9    4.21    0.27
  -7  -1   9    4.67    0.31
  -6  -1   9    0.65    0.11
  -6  -1   9    0.82    0.13
  -5  -1   9   10.07    0.47
  -5  -1   9    8.93    0.46
  -4  -1   9   31.73    1.37
  -4  -1   9   30.46    1.37
  -3  -1   9    3.04    0.20
  -3  -1   9    3.00    0.19
  -2  -1   9   41.21    1.83
  -2  -1   9   41.22    1.83
  -2  -1   9   43.88    1.84
   1   1  -9   20.68    0.92
  -1  -1   9   20.38    0.94
  -1  -1   9   22.68    0.95
   0   1  -9    0.80    0.09
   0  -1   9    0.69    0.09
   0  -1   9    0.95    0.11
  -1   1  -9   91.28    4.01
   1  -1   9   94.12    4.02
  -2   1  -9   45.54    2.03
   2  -1   9   45.51    2.03
   2  -1   9   47.39    2.04
  -3   1  -9   20.17    0.94
   3  -1   9   18.78    0.93
   3  -1   9   22.13    0.95
  -4   1  -9   34.66    1.48
   4  -1   9   34.05    1.49
   4  -1   9   29.96    1.48
  -5   1  -9    2.78    0.23
   5  -1   9    2.16    0.22
  -6   1  -9    0.69    0.16
   6  -1   9    0.15    0.14
  -7   1  -9    8.49    0.51
  -8   1  -9    0.62    0.19
   8  -1   9    0.26    0.18
  -9   1  -9    3.27    0.34
   9  -1   9    3.44    0.36
 -10   1  -9    0.69    0.24
  10  -1   9    0.63    0.26
 -11   1  -9    2.19    0.33
  11  -1   9    2.78    0.36
 -12   1  -9    0.21    0.27
  12  -1   9    0.34    0.28
 -13   1  -9    3.73    0.44
  13  -1   9    4.00    0.46
 -14   0   9   -0.09    0.26
 -13   0   9    0.26    0.25
 -12   0   9    0.03    0.22
 -11   0   9   -0.05    0.18
 -10   0   9   -0.12    0.18
  -9   0   9   -0.14    0.15
   8   0  -9    0.06    0.11
  -8   0   9    0.22    0.15
   7   0  -9    0.28    0.11
  -7   0   9    0.01    0.10
  -7   0   9    0.08    0.12
   6   0  -9   -0.10    0.08
  -6   0   9   -0.05    0.08
  -6   0   9    0.06    0.12
   5   0  -9    0.02    0.08
  -5   0   9    0.13    0.06
  -5   0   9   -0.02    0.11
   4   0  -9   -0.05    0.07
  -4   0   9   -0.06    0.09
  -4   0   9   -0.02    0.01
   3   0  -9    0.04    0.07
  -3   0   9   -0.06    0.03
  -3   0   9    0.12    0.09
   2   0  -9    0.15    0.07
  -2   0   9    0.08    0.10
   1   0  -9    0.15    0.08
  -1   0   9    0.24    0.10
  -1   0   9    0.11    0.07
   0   0  -9    0.18    0.09
   0   0   9    0.12    0.08
   0   0   9    0.26    0.10
  -1   0  -9   -0.07    0.09
  -1   0  -9    0.00    0.09
   1   0   9    0.08    0.10
   1   0   9   -0.05    0.08
  -2   0  -9    0.00    0.10
   2   0   9    0.12    0.09
   2   0   9    0.03    0.11
  -3   0  -9    0.04    0.10
   3   0   9    0.06    0.10
   3   0   9   -0.04    0.10
  -4   0  -9    0.09    0.12
   4   0   9    0.10    0.13
  -5   0  -9    0.11    0.13
   5   0   9    0.07    0.13
  -6   0  -9    0.00    0.13
   6   0   9   -0.01    0.15
  -7   0  -9    0.08    0.15
   7   0   9   -0.17    0.15
  -8   0  -9   -0.01    0.17
   8   0   9    0.08    0.19
  -9   0  -9    0.32    0.20
   9   0   9    0.09    0.20
 -10   0  -9   -0.07    0.21
  10   0   9    0.03    0.22
 -11   0  -9    0.44    0.25
  11   0   9   -0.46    0.24
 -12   0  -9   -0.34    0.26
  12   0   9   -0.28    0.26
 -13   0  -9    0.32    0.30
  13   0   9    0.33    0.31
 -13   1   9    0.50    0.28
 -12   1   9    2.09    0.33
 -11   1   9   -0.17    0.21
 -10   1   9    0.61    0.21
   9  -1  -9    8.29    0.49
  -9   1   9    8.54    0.53
   8  -1  -9    1.03    0.17
  -8   1   9    1.04    0.20
   7  -1  -9    4.27    0.29
  -7   1   9    4.35    0.33
  -7   1   9    3.74    0.28
   6  -1  -9    0.89    0.14
  -6   1   9    0.67    0.16
  -6   1   9    0.73    0.13
   5  -1  -9    8.94    0.46
  -5   1   9    9.29    0.48
  -5   1   9    8.20    0.46
   4  -1  -9   31.53    1.38
  -4   1   9   32.90    1.40
  -4   1   9   28.42    1.38
   3  -1  -9    3.17    0.23
  -3   1   9    3.07    0.24
  -3   1   9    3.32    0.25
   2  -1  -9   44.54    1.91
  -2   1   9   42.04    1.91
  -2   1   9   43.30    1.92
   1  -1  -9   21.71    0.98
  -1   1   9   20.75    0.98
  -1   1   9   21.88    0.99
   0  -1  -9    1.00    0.13
   0   1   9    0.71    0.13
   0   1   9    0.75    0.12
  -1  -1  -9   91.92    3.81
  -1  -1  -9   90.15    3.81
   1   1   9   87.60    3.81
   1   1   9   80.34    3.81
  -2  -1  -9   50.52    2.21
   2   1   9   49.05    2.21
  -3  -1  -9   21.81    1.01
   3   1   9   21.21    1.01
  -4  -1  -9   35.23    1.57
   4   1   9   33.80    1.58
  -5  -1  -9    2.21    0.22
   5   1   9    2.23    0.23
  -6  -1  -9    0.41    0.17
   6   1   9    0.31    0.16
  -7  -1  -9    8.07    0.51
   7   1   9    7.99    0.51
  -8  -1  -9    0.65    0.21
   8   1   9    0.66    0.21
  -9  -1  -9    4.16    0.38
   9   1   9    3.03    0.33
 -10  -1  -9    0.61    0.24
  10   1   9    1.28    0.27
 -11  -1  -9    1.49    0.29
  11   1   9    1.60    0.30
 -12  -1  -9    0.16    0.27
  12   1   9    0.40    0.27
 -13  -1  -9    3.55    0.45
  13   1   9    3.82    0.44
 -13   2   9   11.41    0.77
 -12   2   9    0.37    0.26
 -11   2   9    9.41    0.63
 -10   2   9    0.58    0.24
   9  -2  -9   19.78    1.00
  -9   2   9   21.00    1.03
   8  -2  -9    9.41    0.55
  -8   2   9   10.27    0.59
   7  -2  -9    0.21    0.15
  -7   2   9    0.27    0.18
   6  -2  -9    3.19    0.26
  -6   2   9    2.70    0.27
   5  -2  -9   25.45    1.16
  -5   2   9   24.32    1.16
   4  -2  -9   26.01    1.16
  -4   2   9   26.65    1.17
  -4   2   9   22.69    1.15
   3  -2  -9   66.82    2.81
  -3   2   9   56.86    2.80
  -3   2   9   68.31    2.82
   2  -2  -9    5.09    0.33
  -2   2   9    4.67    0.31
  -2   2   9    5.44    0.33
   1  -2  -9   83.29    3.69
  -1   2   9   85.98    3.70
   0  -2  -9    3.04    0.26
   0   2   9    3.65    0.28
  -1  -2  -9    0.23    0.13
   1   2   9    0.24    0.12
  -2  -2  -9   14.62    0.72
  -2  -2  -9   14.22    0.72
   2   2   9   14.43    0.72
  -3  -2  -9  114.89    5.01
   3   2   9  114.75    5.01
  -4  -2  -9   61.93    2.72
   4   2   9   60.66    2.72
  -5  -2  -9   58.41    2.67
   5   2   9   61.52    2.68
  -6  -2  -9    0.39    0.19
   6   2   9    0.37    0.17
  -7  -2  -9    0.20    0.19
   7   2   9    0.27    0.18
  -8  -2  -9    5.88    0.46
   8   2   9    6.14    0.48
  -9  -2  -9    0.21    0.21
   9   2   9    0.01    0.21
 -10  -2  -9    0.13    0.23
  10   2   9    0.17    0.23
 -11  -2  -9    1.61    0.34
  11   2   9    0.91    0.28
 -12  -2  -9   23.27    1.23
  12   2   9   22.43    1.22
 -13  -2  -9    4.49    0.48
  13   2   9    3.82    0.47
 -13   3   9    4.51    0.49
 -12   3   9   18.19    1.03
 -11   3   9    0.14    0.26
 -10   3   9   31.92    1.55
   9  -3  -9    7.04    0.50
  -9   3   9    7.64    0.55
   8  -3  -9    4.72    0.39
  -8   3   9    4.01    0.38
   7  -3  -9   33.28    1.57
  -7   3   9   34.27    1.58
   6  -3  -9   12.83    0.68
  -6   3   9   12.61    0.69
   5  -3  -9   57.50    2.55
  -5   3   9   56.87    2.56
   4  -3  -9   61.93    2.77
  -4   3   9   63.08    2.78
   3  -3  -9    1.32    0.19
  -3   3   9    0.97    0.18
   2  -3  -9   28.07    1.32
  -2   3   9   29.01    1.32
   1  -3  -9    0.57    0.15
  -1   3   9    0.52    0.16
   0  -3  -9   17.26    0.85
   0   3   9   17.22    0.85
  -1  -3  -9   19.39    0.94
   1   3   9   19.19    0.93
  -2  -3  -9    4.04    0.32
  -2  -3  -9    3.70    0.31
  -3  -3  -9   35.02    1.58
   3   3   9   33.63    1.58
  -4  -3  -9   20.21    1.02
   4   3   9   21.11    1.01
  -5  -3  -9   15.63    0.82
   5   3   9   15.99    0.82
  -6  -3  -9   28.89    1.35
   6   3   9   27.33    1.34
  -7  -3  -9    2.15    0.27
   7   3   9    2.42    0.28
  -8  -3  -9    9.98    0.64
   8   3   9   10.06    0.62
  -9  -3  -9   36.09    1.67
   9   3   9   33.01    1.65
 -10  -3  -9    0.70    0.28
  10   3   9    0.94    0.27
 -11  -3  -9   33.57    1.61
  11   3   9   30.99    1.58
 -12  -3  -9   12.15    0.82
  12   3   9   12.19    0.80
 -13  -3  -9    1.84    0.38
  13   3   9    1.93    0.36
 -12   4   9    3.43    0.44
 -11   4   9    4.81    0.49
  10  -4  -9   20.48    1.10
 -10   4   9   22.20    1.13
   9  -4  -9   16.68    0.93
  -9   4   9   18.45    0.97
   8  -4  -9   62.35    2.92
  -8   4   9   67.69    2.94
   7  -4  -9    1.39    0.25
  -7   4   9    1.38    0.27
   6  -4  -9   74.46    3.34
  -6   4   9   75.74    3.35
   5  -4  -9   43.07    2.01
  -5   4   9   45.10    2.02
   4  -4  -9    0.29    0.16
  -4   4   9    0.17    0.17
   3  -4  -9   25.08    1.19
  -3   4   9   24.92    1.19
   2  -4  -9   32.48    1.49
  -2   4   9   31.61    1.49
   1  -4  -9   11.85    0.64
  -1   4   9   11.80    0.64
   0  -4  -9   49.29    2.20
   0   4   9   48.10    2.19
  -1  -4  -9   29.75    1.36
   1   4   9   27.89    1.35
  -2  -4  -9   25.47    1.20
   2   4   9   24.27    1.19
  -3  -4  -9    4.11    0.37
  -3  -4  -9    4.28    0.38
   3   4   9    3.98    0.36
  -4  -4  -9   76.62    3.42
   4   4   9   77.14    3.41
  -5  -4  -9   52.88    2.51
   5   4   9   57.71    2.51
  -6  -4  -9   19.83    1.00
   6   4   9   18.36    0.97
  -7  -4  -9   49.43    2.24
   7   4   9   47.71    2.23
  -8  -4  -9   36.11    1.69
   8   4   9   34.23    1.67
  -9  -4  -9   13.29    0.81
   9   4   9   12.47    0.77
 -10  -4  -9   27.53    1.38
  10   4   9   25.99    1.35
 -11  -4  -9    4.46    0.47
  11   4   9    2.95    0.38
 -12  -4  -9    2.36    0.41
  12   4   9    1.98    0.38
 -12   5   9    0.11    0.34
 -11   5   9    2.03    0.41
  10  -5  -9   15.69    0.90
 -10   5   9   14.86    0.92
   9  -5  -9   23.75    1.26
  -9   5   9   25.93    1.29
   8  -5  -9    2.27    0.33
  -8   5   9    2.77    0.36
   7  -5  -9   25.21    1.29
  -7   5   9   27.25    1.32
   6  -5  -9    2.29    0.29
  -6   5   9    2.65    0.31
   5  -5  -9   15.18    0.83
  -5   5   9   15.69    0.83
   4  -5  -9    5.20    0.42
  -4   5   9    4.71    0.41
   3  -5  -9   11.51    0.66
  -3   5   9   11.60    0.66
   2  -5  -9   13.31    0.74
  -2   5   9   13.92    0.74
   1  -5  -9   39.07    1.82
  -1   5   9   39.90    1.82
   0  -5  -9   48.71    2.25
   0   5   9   50.54    2.25
  -1  -5  -9   34.00    1.62
   1   5   9   35.31    1.62
  -2  -5  -9    1.17    0.23
   2   5   9    1.95    0.26
  -3  -5  -9   24.86    1.19
   3   5   9   22.88    1.16
  -4  -5  -9   10.05    0.62
  -4  -5  -9    9.40    0.62
   4   5   9    9.45    0.59
  -5  -5  -9    3.44    0.36
   5   5   9    4.77    0.39
  -6  -5  -9   27.87    1.35
   6   5   9   26.47    1.33
  -7  -5  -9   15.28    0.87
   7   5   9   13.76    0.81
  -8  -5  -9   25.42    1.29
   8   5   9   24.67    1.26
  -9  -5  -9   14.62    0.90
   9   5   9   14.77    0.85
 -10  -5  -9    5.40    0.53
  10   5   9    5.13    0.47
 -11  -5  -9    2.77    0.42
 -11   6   9   -0.02    0.35
  10  -6  -9   -0.07    0.29
 -10   6   9   -0.14    0.31
   9  -6  -9    0.57    0.29
  -9   6   9    0.39    0.32
   8  -6  -9    1.33    0.32
  -8   6   9    1.36    0.32
   7  -6  -9    9.43    0.65
  -7   6   9    9.42    0.68
   6  -6  -9   16.89    0.98
  -6   6   9   19.62    1.00
   5  -6  -9    1.52    0.28
  -5   6   9    1.78    0.29
   4  -6  -9    3.97    0.37
  -4   6   9    5.12    0.45
   3  -6  -9    8.19    0.58
  -3   6   9    9.27    0.59
   2  -6  -9   -0.04    0.20
  -2   6   9    0.01    0.18
   1  -6  -9    1.58    0.26
  -1   6   9    2.54    0.31
   0  -6  -9   38.69    1.81
   0   6   9   38.33    1.80
  -1  -6  -9    0.02    0.20
   1   6   9    0.11    0.18
  -2  -6  -9   13.12    0.75
   2   6   9   12.66    0.73
  -3  -6  -9    1.35    0.28
   3   6   9    1.31    0.24
  -4  -6  -9    3.63    0.36
   4   6   9    3.17    0.34
  -5  -6  -9    6.19    0.51
  -5  -6  -9    5.34    0.47
   5   6   9    4.73    0.43
  -6  -6  -9   10.66    0.70
  -6  -6  -9   10.31    0.69
   6   6   9    9.18    0.63
  -7  -6  -9    3.08    0.39
   7   6   9    3.31    0.37
  -8  -6  -9    0.28    0.27
   8   6   9    0.52    0.24
  -9  -6  -9    2.54    0.40
   9   6   9    2.64    0.36
 -10  -6  -9    3.78    0.50
   9  -7  -9    0.50    0.32
  -9   7   9    0.28    0.33
   8  -7  -9    0.55    0.31
  -8   7   9    0.97    0.34
   7  -7  -9    1.44    0.33
  -7   7   9    2.13    0.37
   6  -7  -9    0.15    0.27
  -6   7   9   -0.30    0.26
   5  -7  -9    3.82    0.43
  -5   7   9    3.84    0.42
   4  -7  -9    3.00    0.37
  -4   7   9    2.88    0.34
   3  -7  -9    8.95    0.64
  -3   7   9    9.30    0.62
   2  -7  -9    4.26    0.42
  -2   7   9    5.20    0.44
   1  -7  -9    5.95    0.49
  -1   7   9    5.17    0.44
   0  -7  -9    8.35    0.61
   0   7   9    8.02    0.59
  -1  -7  -9    3.28    0.36
   1   7   9    3.35    0.35
  -2  -7  -9    3.67    0.39
   2   7   9    4.14    0.39
  -3  -7  -9    1.64    0.32
   3   7   9    1.70    0.28
  -4  -7  -9    6.36    0.55
   4   7   9    5.63    0.51
  -5  -7  -9    0.41    0.30
   5   7   9    0.18    0.22
  -6  -7  -9    0.44    0.29
   6   7   9    0.49    0.24
  -7  -7  -9    1.15    0.34
  -7  -7  -9    0.82    0.35
   7   7   9    0.95    0.27
  -8  -7  -9    1.10    0.34
  -8  -7  -9    0.66    0.34
  -9  -7  -9    1.21    0.39
   7  -8  -9    0.10    0.31
  -7   8   9    0.81    0.34
   6  -8  -9    0.74    0.30
  -6   8   9    0.61    0.32
   5  -8  -9    1.66    0.33
  -5   8   9    1.52    0.34
   4  -8  -9    0.32    0.28
  -4   8   9    0.37    0.27
   3  -8  -9    8.28    0.64
  -3   8   9    7.87    0.62
   2  -8  -9   10.52    0.73
  -2   8   9   10.71    0.70
   1  -8  -9    0.24    0.27
  -1   8   9    0.08    0.24
   0  -8  -9    3.27    0.38
   0   8   9    2.69    0.35
  -1  -8  -9    7.04    0.59
   1   8   9    6.00    0.55
  -2  -8  -9    1.77    0.33
   2   8   9    2.46    0.34
  -3  -8  -9    0.30    0.28
   3   8   9    0.13    0.24
  -4  -8  -9    0.33    0.29
   4   8   9    0.57    0.26
  -5  -8  -9    0.35    0.30
  -6  -8  -9    2.07    0.38
  -7  -8  -9    0.66    0.33
   5  -9  -9    3.25    0.47
  -5   9   9    3.43    0.45
   4  -9  -9    0.48    0.31
  -4   9   9    0.32    0.31
   3  -9  -9    3.88    0.46
  -3   9   9    3.95    0.43
   2  -9  -9    1.37    0.35
  -2   9   9    1.48    0.33
   1  -9  -9    2.61    0.42
  -1   9   9    2.23    0.35
   0  -9  -9    7.14    0.61
   0   9   9    7.62    0.62
  -1  -9  -9   13.20    0.86
  -2  -9  -9   -0.22    0.28
  -3  -9  -9    1.60    0.37
  -4  -9  -9    0.73    0.35
  -4  -9  10    1.40    0.19
  -3  -9  10    7.28    0.44
  -2  -9  10    0.77    0.18
  -1  -9  10    0.39    0.18
   0  -9  10   10.47    0.60
   1  -9  10    1.14    0.23
   2  -9  10    3.35    0.33
   3  -9  10    3.20    0.34
  -7  -8  10    5.02    0.33
  -6  -8  10    5.71    0.34
  -5  -8  10    0.23    0.13
  -4  -8  10   37.95    1.69
  -3  -8  10   13.80    0.67
  -2  -8  10    3.61    0.29
  -1  -8  10   19.99    0.95
   0  -8  10    1.10    0.19
   1  -8  10    1.34    0.22
   2  -8  10   11.32    0.64
   3  -8  10    3.52    0.33
   4  -8  10    7.43    0.53
   5  -8  10    1.47    0.28
   6  -8  10    6.29    0.54
   7  -8  10    0.69    0.28
  -9  -7  10    0.50    0.17
  -9  -7  10    0.38    0.16
  -8  -7  10    0.35    0.14
  -7  -7  10    0.36    0.13
  -6  -7  10    0.06    0.11
  -5  -7  10   19.54    0.89
  -4  -7  10   14.13    0.66
  -3  -7  10   18.36    0.84
  -2  -7  10    5.98    0.34
  -1  -7  10    1.43    0.17
   0  -7  10   11.45    0.59
   1  -7  10    4.24    0.33
   2  -7  10    1.01    0.19
   3  -7  10   46.95    2.12
   4  -7  10    5.80    0.44
   5  -7  10   17.00    0.90
   6  -7  10    2.25    0.31
   7  -7  10    2.38    0.34
   8  -7  10    0.80    0.29
 -10  -6  10    2.42    0.25
  -9  -6  10    2.73    0.24
  -8  -6  10   -0.09    0.13
  -7  -6  10    0.52    0.13
  -7  -6  10    0.57    0.12
  -6  -6  10   14.74    0.66
  -6  -6  10   14.20    0.66
  -4  -6  10   28.83    1.26
  -3  -6  10    3.32    0.21
  -3  -6  10    3.88    0.22
  -2  -6  10   13.05    0.59
  -2  -6  10   12.26    0.59
  -1  -6  10    0.22    0.08
  -1  -6  10    0.06    0.10
   0  -6  10    1.11    0.15
   0  -6  10    0.86    0.12
   1  -6  10    8.97    0.48
   2  -6  10   13.04    0.66
   3  -6  10    9.26    0.53
   4  -6  10   51.64    2.33
   5  -6  10    3.99    0.35
   6  -6  10   28.97    1.40
   7  -6  10    7.39    0.55
   8  -6  10    4.62    0.44
   9  -6  10    0.12    0.26
  10  -6  10   11.97    0.81
 -11  -5  10   -0.21    0.17
 -10  -5  10   14.70    0.74
  -9  -5  10    1.04    0.17
  -8  -5  10    4.33    0.29
  -7  -5  10    5.80    0.32
  -7  -5  10    5.81    0.30
  -6  -5  10    4.15    0.23
  -6  -5  10    4.74    0.25
  -2  -5  10    0.95    0.09
  -2  -5  10    0.90    0.09
  -1  -5  10    1.68    0.14
  -1  -5  10    1.48    0.13
   0  -5  10   12.45    0.60
   0  -5  10   13.19    0.61
   1  -5  10   24.28    1.15
   1  -5  10   26.74    1.16
   2  -5  10    9.88    0.50
   2  -5  10    9.13    0.48
   3  -5  10   24.68    1.15
   4  -5  10    1.36    0.20
   5  -5  10   11.50    0.64
   6  -5  10    3.52    0.33
   7  -5  10    0.97    0.25
   8  -5  10   20.12    1.06
   9  -5  10    2.91    0.37
  10  -5  10    2.84    0.40
  11  -5  10    3.25    0.44
 -12  -4  10    0.12    0.20
 -11  -4  10    0.71    0.20
 -10  -4  10    8.90    0.51
  -9  -4  10    0.49    0.15
  -8  -4  10    1.59    0.17
  -7  -4  10   13.60    0.62
  -7  -4  10   12.93    0.61
  -6  -4  10    0.25    0.08
  -6  -4  10    0.21    0.07
  -1  -4  10    0.08    0.06
  -1  -4  10    0.13    0.07
   0  -4  10    9.56    0.47
   0  -4  10   10.43    0.48
   1  -4  10   28.06    1.22
   1  -4  10   26.20    1.21
   2  -4  10    2.09    0.18
   2  -4  10    2.30    0.20
  -3   4 -10    5.20    0.30
   3  -4  10    5.06    0.31
   3  -4  10    5.58    0.35
  -4   4 -10   11.99    0.59
   4  -4  10   11.78    0.62
  -5   4 -10   13.56    0.67
   5  -4  10   13.24    0.70
  -6   4 -10    1.64    0.21
   6  -4  10    2.01    0.25
  -7   4 -10    4.65    0.38
   7  -4  10    5.34    0.43
   8  -4  10    0.40    0.22
   9  -4  10    4.67    0.43
  10  -4  10    0.05    0.26
  11  -4  10    1.42    0.35
  12  -4  10    1.96    0.40
 -13  -3  10    2.92    0.33
 -12  -3  10    0.48    0.21
 -11  -3  10   17.62    0.89
 -10  -3  10   13.50    0.70
  -9  -3  10    3.16    0.26
  -8  -3  10    8.71    0.46
  -7  -3  10    3.99    0.24
  -7  -3  10    4.28    0.26
  -6  -3  10   13.10    0.62
  -6  -3  10   14.04    0.63
  -5  -3  10    8.13    0.40
  -5  -3  10    8.89    0.40
  -1  -3  10   31.37    1.39
  -1  -3  10   32.29    1.39
   0  -3  10    0.33    0.09
   0  -3  10    0.32    0.08
   1  -3  10    1.98    0.16
   1  -3  10    2.22    0.18
  -2   3 -10   24.26    1.06
   2  -3  10   21.79    1.07
   2  -3  10   25.55    1.09
  -3   3 -10    0.53    0.11
   3  -3  10    0.48    0.11
   3  -3  10    0.45    0.14
  -4   3 -10    0.10    0.10
   4  -3  10   -0.03    0.12
   4  -3  10    0.16    0.09
  -5   3 -10   77.69    3.41
   5  -3  10   78.13    3.44
  -6   3 -10   13.92    0.74
   6  -3  10   15.50    0.78
  -7   3 -10    3.40    0.30
   7  -3  10    3.76    0.34
  -8   3 -10    2.42    0.28
   8  -3  10    3.82    0.36
  -9   3 -10    8.51    0.58
   9  -3  10    9.56    0.62
 -10   3 -10    0.30    0.23
  10  -3  10    0.52    0.28
  11  -3  10   10.07    0.72
  12  -3  10    0.16    0.31
 -13  -2  10    1.02    0.27
 -12  -2  10    9.88    0.61
 -11  -2  10    5.44    0.42
 -10  -2  10    6.67    0.44
  -9  -2  10    7.97    0.47
  -8  -2  10   10.81    0.56
  -7  -2  10    2.63    0.20
  -7  -2  10    2.86    0.23
  -6  -2  10    8.48    0.42
  -6  -2  10    8.01    0.41
  -5  -2  10    2.15    0.16
  -5  -2  10    2.20    0.17
  -4  -2  10   18.55    0.85
  -4  -2  10   19.56    0.85
  -3  -2  10    2.24    0.15
  -3  -2  10    2.41    0.16
  -2  -2  10    6.73    0.32
  -2  -2  10    6.28    0.31
  -1  -2  10    2.67    0.18
  -1  -2  10    2.18    0.16
   0  -2  10    0.88    0.10
   0  -2  10    1.07    0.12
  -1   2 -10    0.79    0.09
  -1   2 -10    0.74    0.09
   1  -2  10    0.65    0.12
   1  -2  10    0.79    0.10
  -2   2 -10    9.03    0.44
   2  -2  10    8.50    0.45
   2  -2  10    9.38    0.47
  -3   2 -10    9.24    0.46
   3  -2  10    9.23    0.48
   3  -2  10    8.62    0.46
  -4   2 -10   86.17    3.58
   4  -2  10   86.00    3.60
   4  -2  10   74.24    3.58
  -5   2 -10    3.66    0.28
   5  -2  10    3.66    0.31
  -6   2 -10   34.27    1.56
   6  -2  10   34.13    1.58
  -7   2 -10   62.91    2.83
   7  -2  10   64.44    2.86
  -8   2 -10   17.97    0.96
   8  -2  10   20.35    0.99
  -9   2 -10    6.87    0.50
 -10   2 -10    6.05    0.52
  10  -2  10    7.72    0.56
 -11   2 -10    3.16    0.38
  11  -2  10    3.29    0.39
 -12   2 -10   11.83    0.75
  12  -2  10   10.27    0.77
 -13   2 -10    0.53    0.32
  13  -2  10    0.50    0.33
 -13  -1  10    2.48    0.34
 -12  -1  10   -0.01    0.21
 -11  -1  10    1.26    0.24
 -10  -1  10   17.91    0.90
  -9  -1  10    4.46    0.35
  -8  -1  10   28.58    1.31
  -7  -1  10    0.38    0.10
  -7  -1  10    0.31    0.13
  -6  -1  10    2.00    0.19
  -6  -1  10    2.65    0.22
  -5  -1  10   70.10    2.96
  -5  -1  10   65.93    2.96
  -4  -1  10    0.26    0.08
  -4  -1  10    0.14    0.09
  -3  -1  10   33.31    1.53
  -3  -1  10   36.37    1.54
  -2  -1  10   69.76    3.09
  -2  -1  10   73.02    3.10
  -1  -1  10   17.93    0.84
  -1  -1  10   19.20    0.85
   0   1 -10  121.37    5.31
   0  -1  10  129.28    5.33
   0  -1  10  119.60    5.32
  -1   1 -10   47.92    2.08
  -1   1 -10   47.95    2.08
   1  -1  10   50.61    2.10
   1  -1  10   43.72    2.08
  -2   1 -10   14.74    0.69
   2  -1  10   15.51    0.71
   2  -1  10   13.96    0.70
  -3   1 -10    9.65    0.47
   3  -1  10    9.14    0.49
   3  -1  10    8.27    0.46
  -4   1 -10    5.58    0.35
   4  -1  10    5.51    0.34
   4  -1  10    6.38    0.38
  -5   1 -10   30.99    1.42
   5  -1  10   31.35    1.44
  -6   1 -10    6.98    0.43
   6  -1  10    6.97    0.45
  -7   1 -10    0.62    0.19
   7  -1  10    0.42    0.18
  -8   1 -10   21.60    1.08
   8  -1  10   22.27    1.10
  -9   1 -10    0.44    0.22
   9  -1  10    0.37    0.21
 -10   1 -10   17.61    0.96
  10  -1  10   18.64    0.99
 -11   1 -10    5.56    0.48
  11  -1  10    5.18    0.49
 -12   1 -10    1.63    0.32
  12  -1  10    1.46    0.34
 -13   1 -10    9.27    0.71
  13  -1  10    9.47    0.74
 -13   0  10    0.42    0.26
 -12   0  10    0.23    0.22
 -11   0  10    0.07    0.20
 -10   0  10    1.99    0.27
  -9   0  10   16.51    0.83
  -8   0  10   23.94    1.13
   7   0 -10  140.12    5.75
  -7   0  10  119.08    5.76
  -7   0  10  140.17    5.78
   6   0 -10   10.08    0.48
  -6   0  10   10.34    0.52
  -6   0  10    8.90    0.49
   5   0 -10   21.51    1.01
  -5   0  10   23.63    1.04
   4   0 -10   58.85    2.62
  -4   0  10   62.10    2.65
   3   0 -10   76.96    3.43
  -3   0  10   81.86    3.46
   2   0 -10    0.43    0.09
  -2   0  10    0.43    0.12
   1   0 -10  298.47   12.55
  -1   0  10  274.09   12.61
  -1   0  10  304.52   12.65
   0   0 -10   72.31    3.13
   0   0  10   74.85    3.14
   0   0  10   68.45    3.13
  -1   0 -10  161.46    6.76
  -1   0 -10  159.18    6.76
   1   0  10  146.04    6.76
   1   0  10  159.46    6.76
  -2   0 -10    8.97    0.45
   2   0  10    9.17    0.47
   2   0  10    7.71    0.44
  -3   0 -10   30.01    1.32
   3   0  10   31.45    1.34
   3   0  10   25.76    1.31
  -4   0 -10    1.17    0.17
   4   0  10    1.03    0.17
  -5   0 -10    8.02    0.48
   5   0  10    8.62    0.49
  -6   0 -10    4.47    0.35
   6   0  10    4.35    0.36
  -7   0 -10   42.14    1.94
   7   0  10   43.09    1.96
  -8   0 -10    2.25    0.28
   8   0  10    2.18    0.28
  -9   0 -10    8.00    0.57
   9   0  10    9.64    0.61
 -10   0 -10   20.28    1.06
  10   0  10   20.38    1.09
 -11   0 -10   18.05    1.02
  11   0  10   19.55    1.05
 -12   0 -10    0.75    0.29
  12   0  10    0.65    0.30
 -13   0 -10    6.07    0.56
  13   0  10    5.86    0.55
 -13   1  10    2.85    0.37
 -12   1  10    0.05    0.24
 -11   1  10    1.67    0.29
 -10   1  10   17.07    0.89
  -9   1  10    5.12    0.41
   8  -1 -10   28.50    1.35
  -8   1  10   30.38    1.38
   7  -1 -10    0.21    0.12
  -7   1  10    0.48    0.17
   6  -1 -10    2.54    0.23
  -6   1  10    2.14    0.22
  -6   1  10    2.19    0.20
   5  -1 -10   67.85    2.95
  -5   1  10   71.20    2.97
  -5   1  10   63.46    2.96
   4  -1 -10    0.10    0.10
  -4   1  10    0.28    0.13
  -4   1  10    0.28    0.11
   3  -1 -10   34.27    1.52
  -3   1  10   32.49    1.53
  -3   1  10   35.67    1.54
   2  -1 -10   70.91    3.02
  -2   1  10   65.88    3.02
  -2   1  10   73.20    3.03
  -2   1  10   66.66    3.02
   1  -1 -10   18.43    0.83
  -1   1  10   18.38    0.85
  -1   1  10   16.78    0.84
   0  -1 -10  127.18    5.30
   0   1  10  128.62    5.31
   0   1  10  111.53    5.30
  -1  -1 -10   51.97    2.22
   1   1  10   51.53    2.23
   1   1  10   47.11    2.22
  -2  -1 -10   15.33    0.75
   2   1  10   15.61    0.76
  -3  -1 -10    9.86    0.53
   3   1  10    9.84    0.54
  -4  -1 -10    6.37    0.40
  -5  -1 -10   33.51    1.54
   5   1  10   33.33    1.55
  -6  -1 -10    6.37    0.44
   6   1  10    6.30    0.45
  -7  -1 -10    0.23    0.19
   7   1  10    0.40    0.19
  -8  -1 -10   23.38    1.14
   8   1  10   22.51    1.15
  -9  -1 -10    0.68    0.25
   9   1  10    0.76    0.25
 -10  -1 -10   19.22    1.01
  10   1  10   18.39    1.01
 -11  -1 -10    6.32    0.54
  11   1  10    5.18    0.48
 -12  -1 -10    1.06    0.32
  12   1  10    1.02    0.30
 -13  -1 -10    9.78    0.74
  13   1  10    8.41    0.71
 -13   2  10    1.22    0.33
 -12   2  10   10.75    0.72
 -11   2  10    5.70    0.51
 -10   2  10    7.76    0.56
  -9   2  10    8.97    0.59
   8  -2 -10   10.43    0.60
  -8   2  10   11.59    0.64
   7  -2 -10    3.05    0.27
  -7   2  10    3.04    0.29
   6  -2 -10    8.30    0.47
  -6   2  10    8.36    0.50
   5  -2 -10    2.68    0.23
  -5   2  10    2.17    0.24
   4  -2 -10   19.04    0.90
  -4   2  10   20.15    0.92
  -4   2  10   17.48    0.90
   3  -2 -10    2.48    0.22
  -3   2  10    2.44    0.23
  -3   2  10    2.18    0.21
   2  -2 -10    6.34    0.38
  -2   2  10    6.89    0.41
  -2   2  10    6.91    0.39
  -2   2  10    6.12    0.38
   1  -2 -10    2.42    0.22
  -1   2  10    2.75    0.25
   0  -2 -10    0.91    0.16
   0   2  10    0.79    0.16
  -1  -2 -10    0.91    0.16
   1   2  10    0.58    0.15
  -2  -2 -10    9.88    0.54
  -2  -2 -10    9.72    0.54
   2   2  10   10.06    0.55
  -3  -2 -10    9.72    0.54
   3   2  10    9.74    0.55
  -4  -2 -10   85.57    3.84
   4   2  10   89.10    3.85
  -5  -2 -10    3.84    0.34
   5   2  10    4.05    0.35
  -6  -2 -10   34.89    1.62
   6   2  10   34.56    1.62
  -7  -2 -10   65.98    2.97
   7   2  10   66.49    2.97
  -8  -2 -10   18.19    0.96
   8   2  10   18.22    0.96
  -9  -2 -10    8.17    0.57
   9   2  10    7.41    0.57
 -10  -2 -10    6.51    0.56
  10   2  10    6.99    0.57
 -11  -2 -10    2.89    0.40
  11   2  10    3.05    0.40
 -12  -2 -10   12.01    0.81
  12   2  10   12.69    0.83
 -13  -2 -10    0.01    0.32
  13   2  10    0.15    0.29
 -13   3  10    3.34    0.45
 -12   3  10    0.20    0.29
 -11   3  10   19.57    1.07
 -10   3  10   13.90    0.81
   9  -3 -10    3.19    0.33
  -9   3  10    3.42    0.35
   8  -3 -10    7.98    0.52
  -8   3  10    7.98    0.55
   7  -3 -10    4.24    0.37
  -7   3  10    4.76    0.41
   6  -3 -10   13.05    0.69
  -6   3  10   12.76    0.71
   5  -3 -10    8.40    0.50
  -5   3  10    8.43    0.52
   4  -3 -10    0.35    0.16
  -4   3  10    0.08    0.16
   3  -3 -10   17.09    0.83
  -3   3  10   16.46    0.84
   2  -3 -10    6.99    0.43
  -2   3  10    6.64    0.42
   1  -3 -10   32.15    1.51
  -1   3  10   34.01    1.52
   0  -3 -10    0.23    0.14
   0   3  10    0.16    0.15
  -1  -3 -10    2.29    0.24
   1   3  10    2.20    0.24
  -2  -3 -10   26.01    1.21
   2   3  10   25.00    1.21
  -3  -3 -10    0.25    0.16
  -3  -3 -10    0.44    0.17
   3   3  10    0.42    0.16
  -4  -3 -10    0.11    0.17
   4   3  10    0.10    0.15
  -5  -3 -10   82.64    3.68
   5   3  10   83.24    3.68
  -6  -3 -10   13.93    0.77
   6   3  10   13.87    0.77
  -7  -3 -10    3.45    0.34
   7   3  10    3.16    0.32
  -8  -3 -10    2.64    0.32
   8   3  10    3.08    0.33
  -9  -3 -10   10.60    0.68
   9   3  10    9.46    0.65
 -10  -3 -10    0.43    0.28
  10   3  10    0.35    0.24
 -11  -3 -10   10.08    0.74
  11   3  10    9.93    0.70
 -12  -3 -10   -0.03    0.33
  12   3  10   -0.19    0.28
 -12   4  10    0.17    0.32
 -11   4  10    0.68    0.33
 -10   4  10    9.26    0.67
   9  -4 -10    0.61    0.24
  -9   4  10    0.99    0.28
   8  -4 -10    2.23    0.29
  -8   4  10    2.74    0.34
   7  -4 -10   14.37    0.79
  -7   4  10   14.63    0.82
   6  -4 -10    0.28    0.19
  -6   4  10    0.41    0.21
   5  -4 -10    1.66    0.23
  -5   4  10    1.83    0.26
   4  -4 -10    6.80    0.47
  -4   4  10    7.46    0.49
   3  -4 -10    0.45    0.19
  -3   4  10    0.80    0.20
   2  -4 -10   13.62    0.73
  -2   4  10   13.77    0.73
   1  -4 -10    0.07    0.15
  -1   4  10    0.12    0.17
   0  -4 -10    9.91    0.59
   0   4  10   10.91    0.60
  -1  -4 -10   29.70    1.40
   1   4  10   29.95    1.41
  -2  -4 -10    2.27    0.26
   2   4  10    2.15    0.25
  -3  -4 -10    5.71    0.45
  -3  -4 -10    5.45    0.43
   3   4  10    5.17    0.42
  -4  -4 -10   13.09    0.72
  -4  -4 -10   12.54    0.72
   4   4  10   12.86    0.72
  -5  -4 -10   14.85    0.84
   5   4  10   16.20    0.84
  -6  -4 -10    1.63    0.29
   6   4  10    1.89    0.26
  -7  -4 -10    5.67    0.46
   7   4  10    4.98    0.43
  -8  -4 -10    0.29    0.25
   8   4  10   -0.05    0.21
  -9  -4 -10    5.25    0.48
   9   4  10    5.57    0.50
 -10  -4 -10    0.24    0.29
  10   4  10   -0.25    0.22
 -11  -4 -10    1.51    0.37
  11   4  10    1.23    0.32
 -12  -4 -10    2.12    0.40
  12   4  10    1.51    0.33
 -11   5  10    0.15    0.33
 -10   5  10   15.83    0.96
   9  -5 -10    1.32    0.30
  -9   5  10    0.92    0.30
   8  -5 -10    5.77    0.48
  -8   5  10    5.71    0.49
   7  -5 -10    6.15    0.51
  -7   5  10    6.39    0.54
   6  -5 -10    5.19    0.43
  -6   5  10    4.25    0.40
   5  -5 -10   12.79    0.75
  -5   5  10   13.54    0.75
   4  -5 -10    0.83    0.23
  -4   5  10    0.97    0.24
   3  -5 -10    2.23    0.29
  -3   5  10    2.80    0.29
   2  -5 -10    1.11    0.23
  -2   5  10    1.09    0.23
   1  -5 -10    1.81    0.27
  -1   5  10    1.71    0.26
   0  -5 -10   14.49    0.77
   0   5  10   13.87    0.76
  -1  -5 -10   28.10    1.35
   1   5  10   27.90    1.34
  -2  -5 -10   10.38    0.64
   2   5  10   10.47    0.62
  -3  -5 -10   26.28    1.30
   3   5  10   26.27    1.28
  -4  -5 -10    1.14    0.26
  -4  -5 -10    1.35    0.26
   4   5  10    1.65    0.26
  -5  -5 -10   13.01    0.77
  -5  -5 -10   13.19    0.78
   5   5  10   12.65    0.74
  -6  -5 -10    3.92    0.40
   6   5  10    5.01    0.43
  -7  -5 -10    1.22    0.31
   7   5  10    0.51    0.24
  -8  -5 -10   20.97    1.15
   8   5  10   21.36    1.12
  -9  -5 -10    3.10    0.42
   9   5  10    3.58    0.41
 -10  -5 -10    2.15    0.39
  10   5  10    2.35    0.36
 -11  -5 -10    4.21    0.51
 -10   6  10    2.57    0.42
   9  -6 -10    2.60    0.37
  -9   6  10    2.27    0.40
   8  -6 -10   -0.30    0.24
  -8   6  10    0.05    0.29
   7  -6 -10    0.12    0.24
  -7   6  10    0.54    0.29
   6  -6 -10   15.50    0.91
  -6   6  10   17.00    0.93
   5  -6 -10   12.30    0.75
  -5   6  10   12.58    0.75
   4  -6 -10   30.91    1.52
  -4   6  10   32.16    1.53
   3  -6 -10    4.06    0.42
  -3   6  10    5.01    0.43
   2  -6 -10   13.65    0.79
  -2   6  10   13.84    0.79
   1  -6 -10    0.44    0.24
  -1   6  10    0.05    0.21
   0  -6 -10    0.86    0.25
   0   6  10    0.87    0.25
  -1  -6 -10    9.70    0.63
   1   6  10    9.34    0.61
  -2  -6 -10   14.96    0.83
   2   6  10   14.23    0.81
  -3  -6 -10   10.28    0.66
   3   6  10    9.87    0.64
  -4  -6 -10   57.91    2.57
   4   6  10   53.28    2.54
  -5  -6 -10    3.92    0.41
  -5  -6 -10    3.23    0.39
   5   6  10    5.58    0.44
  -6  -6 -10   30.83    1.52
  -6  -6 -10   31.12    1.53
   6   6  10   29.70    1.49
  -7  -6 -10    8.32    0.64
  -7  -6 -10    7.59    0.61
   7   6  10    6.17    0.56
  -8  -6 -10    4.67    0.48
   8   6  10    4.21    0.41
  -9  -6 -10    0.23    0.32
   9   6  10    0.12    0.25
 -10  -6 -10   13.35    0.92
   9  -7 -10   -0.06    0.31
  -9   7  10    0.73    0.37
   8  -7 -10    0.21    0.29
  -8   7  10   -0.02    0.32
   7  -7 -10    0.15    0.30
  -7   7  10    0.11    0.31
   6  -7 -10    0.18    0.26
  -6   7  10    0.17    0.28
   5  -7 -10   21.91    1.17
  -5   7  10   21.79    1.17
   4  -7 -10   15.86    0.91
  -4   7  10   15.75    0.90
   3  -7 -10   19.27    1.07
  -3   7  10   19.98    1.06
   2  -7 -10    7.29    0.59
  -2   7  10    7.19    0.56
   1  -7 -10    1.39    0.28
  -1   7  10    1.18    0.27
   0  -7 -10   12.09    0.75
   0   7  10   11.59    0.73
  -1  -7 -10    3.40    0.38
   1   7  10    3.95    0.38
  -2  -7 -10    0.76    0.28
   2   7  10    1.31    0.26
  -3  -7 -10   50.41    2.33
   3   7  10   49.03    2.31
  -4  -7 -10    7.34    0.59
   4   7  10    5.96    0.54
  -5  -7 -10   18.12    1.01
   5   7  10   17.58    0.98
  -6  -7 -10    1.50    0.35
   6   7  10    1.71    0.31
  -7  -7 -10    2.15    0.39
  -7  -7 -10    2.11    0.37
   7   7  10    2.26    0.34
  -8  -7 -10    0.83    0.34
  -8  -7 -10    1.72    0.39
   7  -8 -10    7.10    0.62
  -7   8  10    6.62    0.60
   6  -8 -10    5.88    0.57
  -6   8  10    7.40    0.65
   5  -8 -10    0.00    0.29
  -5   8  10   -0.38    0.28
   4  -8 -10   39.79    1.90
  -4   8  10   38.06    1.88
   3  -8 -10   15.99    0.96
  -3   8  10   16.11    0.94
   2  -8 -10    3.57    0.41
  -2   8  10    3.21    0.38
   1  -8 -10   20.91    1.17
  -1   8  10   22.42    1.16
   0  -8 -10    0.80    0.32
   0   8  10    0.78    0.27
  -1  -8 -10    1.20    0.31
   1   8  10    1.30    0.31
  -2  -8 -10   12.65    0.80
   2   8  10   11.01    0.75
  -3  -8 -10    4.31    0.47
   3   8  10    4.42    0.45
  -4  -8 -10    6.36    0.56
   4   8  10    6.65    0.57
  -5  -8 -10    1.68    0.36
  -6  -8 -10    6.01    0.56
  -7  -8 -10    0.76    0.35
   4  -9 -10    2.08    0.41
  -4   9  10    0.74    0.34
   3  -9 -10    7.72    0.68
  -3   9  10    8.05    0.67
   2  -9 -10    1.07    0.35
  -2   9  10    0.80    0.31
   1  -9 -10    0.72    0.34
  -1   9  10    0.46    0.28
   0  -9 -10   11.61    0.83
   0   9  10   12.50    0.80
  -1  -9 -10    1.24    0.35
   1   9  10    1.14    0.30
  -2  -9 -10    3.88    0.49
  -3  -9 -10    3.92    0.50
  -2  -9  11    7.81    0.46
  -1  -9  11    0.19    0.16
   0  -9  11    7.78    0.49
   1  -9  11    0.32    0.19
   2  -9  11    0.06    0.20
  -5  -8  11    0.37    0.11
  -4  -8  11   -0.03    0.11
  -3  -8  11    5.64    0.33
  -2  -8  11    0.75    0.15
  -1  -8  11    7.36    0.43
   0  -8  11    4.91    0.36
   1  -8  11    4.63    0.37
   2  -8  11    2.37    0.27
   3  -8  11    1.48    0.25
   4  -8  11    0.56    0.23
   5  -8  11    0.66    0.25
   6  -8  11    0.44    0.25
  -8  -7  11    2.83    0.23
  -4  -7  11    0.67    0.09
  -3  -7  11    4.34    0.26
  -2  -7  11    3.67    0.25
  -1  -7  11    0.31    0.12
   0  -7  11    0.08    0.13
   1  -7  11    3.74    0.30
   2  -7  11    0.24    0.17
   3  -7  11    3.06    0.29
   4  -7  11    0.26    0.19
   5  -7  11    0.95    0.23
   6  -7  11    1.87    0.30
   7  -7  11    1.88    0.31
   8  -7  11    0.40    0.29
 -10  -6  11    0.45    0.17
  -9  -6  11    7.11    0.41
  -8  -6  11    0.39    0.13
  -2  -6  11   15.87    0.75
  -2  -6  11   17.35    0.75
  -1  -6  11   38.15    1.74
  -1  -6  11   40.97    1.74
   0  -6  11    0.74    0.11
   0  -6  11    0.60    0.13
   1  -6  11   36.93    1.66
   2  -6  11    1.00    0.17
   3  -6  11    0.26    0.16
   4  -6  11    0.05    0.17
   5  -6  11   -0.01    0.18
   6  -6  11    7.03    0.51
   7  -6  11    0.41    0.23
   8  -6  11    4.86    0.45
   9  -6  11    2.02    0.36
 -11  -5  11    3.58    0.30
 -10  -5  11    1.23    0.19
  -9  -5  11    1.03    0.17
  -8  -5  11   42.52    1.87
  -7  -5  11    1.48    0.12
  -7  -5  11    1.56    0.14
  -1  -5  11   10.69    0.49
  -1  -5  11   10.00    0.48
   0  -5  11   22.64    0.99
   0  -5  11   20.86    0.98
   1  -5  11    6.23    0.36
   1  -5  11    6.07    0.33
   2  -5  11   75.26    3.30
   3  -5  11    1.47    0.20
   4  -5  11    5.39    0.38
   5  -5  11    8.36    0.52
   6  -5  11    8.09    0.52
   7  -5  11   16.68    0.90
   8  -5  11   24.38    1.24
   9  -5  11    1.52    0.32
  10  -5  11    6.62    0.58
 -12  -4  11   11.20    0.64
 -11  -4  11    3.50    0.31
 -10  -4  11    5.47    0.38
  -9  -4  11   22.78    1.05
  -8  -4  11    2.56    0.22
  -7  -4  11   13.53    0.61
  -7  -4  11   12.66    0.60
  -1  -4  11    1.32    0.11
  -1  -4  11    1.13    0.10
   0  -4  11   44.51    2.05
   0  -4  11   49.52    2.06
   1  -4  11   31.02    1.32
   1  -4  11   27.92    1.31
   2  -4  11   10.47    0.54
   2  -4  11   11.80    0.56
   3  -4  11    8.72    0.45
   4  -4  11   23.32    1.11
   5  -4  11    4.34    0.36
   6  -4  11   76.56    3.40
   7  -4  11   36.85    1.73
   8  -4  11    5.72    0.50
   9  -4  11   23.96    1.24
  10  -4  11    0.80    0.30
  11  -4  11    0.55    0.32
 -12  -3  11   -0.05    0.19
 -11  -3  11   19.86    0.98
 -10  -3  11    1.14    0.20
  -9  -3  11    0.15    0.14
  -8  -3  11   39.46    1.75
  -7  -3  11    0.50    0.11
  -7  -3  11    0.31    0.09
  -6  -3  11    2.50    0.18
  -6  -3  11    2.23    0.17
  -5  -3  11    1.43    0.13
  -5  -3  11    1.37    0.12
  -2  -3  11    1.33    0.11
  -2  -3  11    1.31    0.10
  -1  -3  11   23.70    1.09
  -1  -3  11   25.85    1.10
   0  -3  11   24.63    1.08
   0  -3  11   23.53    1.07
   1  -3  11    0.12    0.08
   1  -3  11    0.03    0.10
   2  -3  11  103.13    4.26
   2  -3  11   92.64    4.24
  -3   3 -11    3.12    0.22
   3  -3  11    2.76    0.22
   3  -3  11    3.66    0.27
  -4   3 -11    6.47    0.35
   4  -3  11    6.13    0.38
   4  -3  11    4.66    0.33
  -5   3 -11   74.13    3.27
   5  -3  11   74.71    3.29
  -6   3 -11    0.21    0.14
   6  -3  11    0.30    0.18
  -7   3 -11   36.24    1.72
   7  -3  11   38.70    1.75
  -8   3 -11    3.67    0.33
   8  -3  11    3.37    0.36
   9  -3  11   -0.06    0.23
  10  -3  11   19.75    1.07
  11  -3  11    0.15    0.29
  12  -3  11   10.98    0.79
 -13  -2  11    0.00    0.23
 -12  -2  11   12.60    0.72
 -11  -2  11    0.56    0.20
 -10  -2  11   15.40    0.79
  -9  -2  11    1.83    0.21
  -8  -2  11    1.19    0.17
  -7  -2  11    5.26    0.32
  -7  -2  11    5.15    0.30
  -6  -2  11   38.25    1.64
  -6  -2  11   36.03    1.63
  -5  -2  11   42.10    1.79
  -5  -2  11   39.57    1.79
  -4  -2  11  118.08    5.28
  -4  -2  11  127.11    5.28
  -3  -2  11    0.14    0.07
  -3  -2  11    0.17    0.08
  -2  -2  11   56.51    2.43
  -2  -2  11   55.45    2.43
  -1  -2  11   20.55    0.91
  -1  -2  11   19.80    0.90
   0  -2  11    5.70    0.32
   0  -2  11    6.64    0.33
   1  -2  11   13.61    0.63
   1  -2  11   12.70    0.62
  -2   2 -11   43.83    1.90
   2  -2  11   46.43    1.92
   2  -2  11   39.55    1.91
  -3   2 -11   19.66    0.89
   3  -2  11   20.37    0.92
   3  -2  11   17.84    0.90
  -4   2 -11   12.18    0.59
   4  -2  11   10.40    0.58
   4  -2  11   12.41    0.61
  -5   2 -11   56.68    2.52
   5  -2  11   57.30    2.54
  -6   2 -11    9.65    0.55
   6  -2  11   10.13    0.58
  -7   2 -11    0.69    0.18
   7  -2  11    0.79    0.21
  -8   2 -11    1.13    0.21
   8  -2  11    0.91    0.24
  -9   2 -11    8.42    0.56
   9  -2  11    8.55    0.60
 -10   2 -11    2.99    0.34
  10  -2  11    3.17    0.37
 -11   2 -11    9.52    0.65
  11  -2  11    9.21    0.69
  12  -2  11    3.26    0.43
 -13  -1  11    2.02    0.32
 -12  -1  11    0.12    0.22
 -11  -1  11    5.28    0.43
 -10  -1  11    4.23    0.37
  -9  -1  11    5.97    0.41
  -8  -1  11    2.38    0.23
  -7  -1  11    3.49    0.25
  -7  -1  11    4.53    0.30
  -6  -1  11    2.24    0.20
  -6  -1  11    2.45    0.20
  -5  -1  11   10.84    0.55
  -5  -1  11   12.22    0.57
  -4  -1  11    0.38    0.11
  -4  -1  11    0.26    0.09
  -3  -1  11  110.63    4.64
  -3  -1  11  104.15    4.64
  -2  -1  11    5.27    0.29
  -2  -1  11    4.71    0.28
  -1  -1  11    2.30    0.18
  -1  -1  11    2.54    0.21
   0   1 -11    4.00    0.23
   0  -1  11    3.99    0.25
   0  -1  11    4.56    0.28
  -1   1 -11   25.59    1.14
   1  -1  11   24.13    1.15
   1  -1  11   26.92    1.17
  -2   1 -11    1.41    0.15
   2  -1  11    1.14    0.14
   2  -1  11    1.13    0.16
  -3   1 -11    2.95    0.23
   3  -1  11    2.74    0.22
   3  -1  11    2.52    0.23
  -4   1 -11    7.43    0.42
   4  -1  11    7.53    0.44
   4  -1  11    6.66    0.42
  -5   1 -11    2.69    0.24
   5  -1  11    2.11    0.24
  -6   1 -11   13.22    0.71
   6  -1  11   14.03    0.73
  -7   1 -11    0.83    0.21
   7  -1  11    0.50    0.20
  -8   1 -11   13.38    0.76
   8  -1  11   14.73    0.79
  -9   1 -11    1.17    0.26
   9  -1  11    0.69    0.24
 -10   1 -11    3.18    0.34
  10  -1  11    2.41    0.35
 -11   1 -11    4.31    0.43
  11  -1  11    3.45    0.42
 -12   1 -11    5.22    0.50
  12  -1  11    5.21    0.51
 -13   0  11   -0.17    0.24
 -12   0  11    0.05    0.22
 -11   0  11   -0.21    0.19
 -10   0  11    0.16    0.19
  -9   0  11    0.05    0.17
  -8   0  11   -0.01    0.16
  -7   0  11    0.06    0.15
   6   0 -11   -0.03    0.09
  -6   0  11    0.04    0.06
  -6   0  11   -0.05    0.13
   5   0 -11    0.02    0.08
  -5   0  11    0.02    0.02
  -5   0  11    0.00    0.12
   4   0 -11    0.10    0.08
  -4   0  11    0.01    0.05
  -4   0  11    0.10    0.12
   3   0 -11   -0.01    0.08
  -3   0  11    0.03    0.04
  -3   0  11    0.11    0.11
   2   0 -11    0.16    0.08
  -2   0  11    0.22    0.12
   1   0 -11    0.13    0.09
  -1   0  11    0.12    0.12
  -1   0  11    0.02    0.08
   0   0 -11    0.25    0.09
   0   0  11    0.27    0.10
   0   0  11    0.27    0.12
  -1   0 -11    0.04    0.09
   1   0  11    0.07    0.12
   1   0  11    0.15    0.09
  -2   0 -11   -0.01    0.10
   2   0  11    0.05    0.11
   2   0  11    0.01    0.09
  -3   0 -11    0.05    0.12
   3   0  11    0.33    0.14
   3   0  11    0.00    0.09
  -4   0 -11    0.01    0.12
   4   0  11   -0.14    0.13
  -5   0 -11    0.10    0.15
   5   0  11   -0.08    0.14
  -6   0 -11    0.04    0.16
   6   0  11   -0.06    0.17
  -7   0 -11    0.19    0.18
   7   0  11   -0.01    0.19
  -8   0 -11   -0.18    0.19
   8   0  11    0.29    0.22
  -9   0 -11   -0.03    0.21
   9   0  11   -0.09    0.21
 -10   0 -11    0.03    0.22
  10   0  11   -0.21    0.23
 -11   0 -11   -0.37    0.23
  11   0  11    0.23    0.27
 -12   0 -11    0.37    0.31
  12   0  11   -0.24    0.28
 -13   0 -11   -0.03    0.30
  13   0  11   -0.04    0.31
 -13   1  11    1.13    0.30
 -12   1  11    0.16    0.25
 -11   1  11    5.74    0.49
 -10   1  11    3.96    0.36
  -9   1  11    5.90    0.45
  -8   1  11    2.59    0.27
   7  -1 -11    4.35    0.30
  -7   1  11    4.04    0.36
   6  -1 -11    2.29    0.20
  -6   1  11    1.94    0.20
  -6   1  11    2.29    0.23
   5  -1 -11   11.57    0.57
  -5   1  11   12.03    0.60
  -5   1  11   10.50    0.57
   4  -1 -11    0.26    0.10
  -4   1  11    0.16    0.14
  -4   1  11    0.22    0.11
   3  -1 -11  106.23    4.62
  -3   1  11  113.50    4.64
  -3   1  11   99.76    4.62
   2  -1 -11    4.78    0.29
  -2   1  11    5.50    0.33
  -2   1  11    4.50    0.30
  -2   1  11    4.31    0.30
   1  -1 -11    2.48    0.20
  -1   1  11    2.55    0.22
  -1   1  11    2.20    0.20
   0  -1 -11    4.48    0.29
   0   1  11    4.85    0.32
   0   1  11    3.87    0.28
  -1  -1 -11   26.53    1.19
   1   1  11   23.98    1.18
   1   1  11   27.11    1.20
  -2  -1 -11    1.29    0.17
  -2  -1 -11    1.23    0.17
   2   1  11    1.29    0.18
  -3  -1 -11    3.43    0.30
   3   1  11    3.51    0.29
  -4  -1 -11    6.67    0.43
   4   1  11    7.34    0.45
  -5  -1 -11    2.16    0.25
   5   1  11    2.73    0.27
  -6  -1 -11   13.85    0.75
   6   1  11   14.29    0.76
  -7  -1 -11    0.59    0.20
   7   1  11    0.38    0.20
  -8  -1 -11   12.86    0.77
   8   1  11   15.03    0.80
  -9  -1 -11    0.97    0.27
   9   1  11    0.82    0.25
 -10  -1 -11    2.78    0.35
  10   1  11    3.08    0.37
 -11  -1 -11    3.73    0.42
  11   1  11    3.69    0.42
 -12  -1 -11    5.57    0.51
  12   1  11    5.56    0.51
 -13   2  11    0.07    0.29
 -12   2  11   14.02    0.86
 -11   2  11    1.38    0.30
 -10   2  11   15.84    0.87
  -9   2  11    1.36    0.27
  -8   2  11    1.70    0.26
   7  -2 -11    5.43    0.39
  -7   2  11    5.79    0.44
   6  -2 -11   39.08    1.82
  -6   2  11   41.63    1.84
   5  -2 -11   41.71    1.88
  -5   2  11   42.20    1.90
   4  -2 -11  127.89    5.40
  -4   2  11  113.41    5.42
  -4   2  11  131.41    5.42
   3  -2 -11    0.15    0.13
  -3   2  11    0.20    0.12
  -3   2  11    0.39    0.15
   2  -2 -11   55.47    2.49
  -2   2  11   57.08    2.50
   1  -2 -11   19.98    0.96
  -1   2  11   20.99    0.99
   0  -2 -11    5.70    0.37
   0   2  11    6.13    0.39
  -1  -2 -11   14.07    0.72
   1   2  11   14.81    0.74
  -2  -2 -11   47.14    2.15
  -2  -2 -11   47.58    2.15
   2   2  11   48.97    2.16
  -3  -2 -11   21.19    0.99
   3   2  11   19.31    0.99
  -4  -2 -11   13.90    0.71
   4   2  11   12.36    0.70
  -5  -2 -11   57.89    2.57
   5   2  11   56.58    2.58
  -6  -2 -11    9.71    0.60
   6   2  11   10.08    0.60
  -7  -2 -11    0.46    0.21
   7   2  11    0.36    0.21
  -8  -2 -11    0.78    0.24
   8   2  11    1.11    0.25
  -9  -2 -11    8.73    0.62
   9   2  11    9.22    0.63
 -10  -2 -11    2.86    0.38
  10   2  11    3.67    0.41
 -11  -2 -11   11.17    0.75
  11   2  11    9.35    0.72
 -12  -2 -11    3.67    0.44
  12   2  11    2.34    0.39
 -12   3  11    0.06    0.29
 -11   3  11   21.77    1.17
 -10   3  11    1.35    0.31
  -9   3  11    0.63    0.26
   8  -3 -11   39.51    1.90
  -8   3  11   43.46    1.94
   7  -3 -11    0.52    0.18
  -7   3  11    0.58    0.23
   6  -3 -11    2.32    0.25
  -6   3  11    2.57    0.28
   5  -3 -11    1.63    0.21
  -5   3  11    1.13    0.21
   4  -3 -11    4.75    0.37
  -4   3  11    5.12    0.40
   3  -3 -11  110.31    4.85
  -3   3  11  111.75    4.86
   2  -3 -11    0.94    0.18
  -2   3  11    1.01    0.19
   1  -3 -11   24.62    1.16
  -1   3  11   24.35    1.17
   0  -3 -11   25.29    1.20
   0   3  11   25.31    1.21
  -1  -3 -11    0.09    0.15
   1   3  11    0.11    0.16
  -2  -3 -11  110.23    4.73
   2   3  11  105.58    4.73
  -3  -3 -11    3.14    0.30
  -3  -3 -11    3.15    0.29
   3   3  11    3.90    0.34
  -4  -3 -11    6.60    0.47
   4   3  11    6.86    0.47
  -5  -3 -11   84.12    3.76
   5   3  11   85.33    3.76
  -6  -3 -11    0.49    0.21
   6   3  11    0.44    0.21
  -7  -3 -11   37.14    1.77
   7   3  11   37.78    1.77
  -8  -3 -11    3.35    0.36
   8   3  11    2.99    0.34
  -9  -3 -11    0.30    0.24
   9   3  11   -0.11    0.21
 -10  -3 -11   18.23    1.05
  10   3  11   19.57    1.05
 -11  -3 -11    0.25    0.32
  11   3  11   -0.13    0.24
 -12  -3 -11    9.39    0.78
  12   3  11    9.65    0.73
 -12   4  11   13.08    0.87
 -11   4  11    4.14    0.47
 -10   4  11    7.17    0.62
  -9   4  11   25.12    1.29
   8  -4 -11    2.59    0.31
  -8   4  11    2.52    0.35
   7  -4 -11   13.51    0.77
  -7   4  11   14.64    0.81
   6  -4 -11    2.49    0.27
  -6   4  11    1.83    0.28
   5  -4 -11   12.06    0.68
  -5   4  11   12.28    0.69
   4  -4 -11    0.25    0.18
  -4   4  11    0.32    0.20
   3  -4 -11    1.61    0.24
  -3   4  11    1.43    0.25
   2  -4 -11   18.95    0.98
  -2   4  11   20.23    0.99
   1  -4 -11    1.09    0.22
  -1   4  11    1.33    0.21
   0  -4 -11   47.82    2.19
   0   4  11   48.60    2.19
  -1  -4 -11   33.70    1.54
   1   4  11   31.85    1.54
  -2  -4 -11   11.92    0.69
   2   4  11   12.44    0.69
  -3  -4 -11   23.40    1.13
   3   4  11   22.06    1.12
  -4  -4 -11   24.35    1.22
  -4  -4 -11   25.32    1.23
   4   4  11   24.96    1.22
  -5  -4 -11    4.71    0.41
   5   4  11    3.94    0.37
  -6  -4 -11   81.40    3.66
   6   4  11   81.85    3.65
  -7  -4 -11   39.34    1.86
   7   4  11   38.38    1.84
  -8  -4 -11    5.40    0.47
   8   4  11    4.92    0.44
  -9  -4 -11   24.63    1.28
   9   4  11   23.67    1.25
 -10  -4 -11    1.23    0.35
  10   4  11    1.30    0.33
 -11  -4 -11    0.20    0.34
  11   4  11    0.16    0.29
 -11   5  11    3.95    0.49
 -10   5  11    1.37    0.37
  -9   5  11    1.31    0.34
   8  -5 -11   42.95    2.09
  -8   5  11   46.30    2.12
   7  -5 -11    1.38    0.28
  -7   5  11    2.29    0.34
   6  -5 -11    8.32    0.60
  -6   5  11    9.66    0.63
   5  -5 -11    0.86    0.25
  -5   5  11    0.86    0.25
   4  -5 -11    6.55    0.49
  -4   5  11    7.10    0.52
   3  -5 -11   11.47    0.67
  -3   5  11   11.02    0.68
   2  -5 -11    1.56    0.27
  -2   5  11    1.89    0.29
   1  -5 -11   11.09    0.66
  -1   5  11   11.07    0.66
   0  -5 -11   24.15    1.20
   0   5  11   24.70    1.20
  -1  -5 -11    6.64    0.50
   1   5  11    7.23    0.51
  -2  -5 -11   81.71    3.70
   2   5  11   84.45    3.70
  -3  -5 -11    2.09    0.30
   3   5  11    1.79    0.29
  -4  -5 -11    4.76    0.42
   4   5  11    5.78    0.46
  -5  -5 -11    8.63    0.62
  -5  -5 -11    8.94    0.61
   5   5  11    8.16    0.58
  -6  -5 -11    9.32    0.66
   6   5  11    9.03    0.63
  -7  -5 -11   16.12    0.94
   7   5  11   15.96    0.91
  -8  -5 -11   24.23    1.27
   8   5  11   23.04    1.23
  -9  -5 -11    1.53    0.36
   9   5  11    2.00    0.35
 -10  -5 -11    6.04    0.59
  10   5  11    6.73    0.59
 -10   6  11    0.27    0.36
  -9   6  11    7.67    0.68
   8  -6 -11    0.09    0.29
  -8   6  11    0.67    0.33
   7  -6 -11   15.51    0.92
  -7   6  11   16.45    0.93
   6  -6 -11    0.04    0.23
  -6   6  11    0.08    0.28
   5  -6 -11    8.40    0.59
  -5   6  11    7.18    0.60
   4  -6 -11   14.33    0.82
  -4   6  11   14.32    0.83
   3  -6 -11    5.85    0.53
  -3   6  11    6.88    0.53
   2  -6 -11   18.59    1.01
  -2   6  11   19.23    1.01
   1  -6 -11   43.37    2.05
  -1   6  11   44.30    2.05
   0  -6 -11    0.95    0.25
   0   6  11    0.50    0.23
  -1  -6 -11   42.27    1.97
   1   6  11   41.52    1.96
  -2  -6 -11    1.18    0.29
   2   6  11    0.98    0.26
  -3  -6 -11    0.11    0.25
   3   6  11    0.26    0.23
  -4  -6 -11    0.22    0.26
   4   6  11    0.21    0.23
  -5  -6 -11   -0.11    0.26
   5   6  11    0.11    0.23
  -6  -6 -11    6.85    0.59
  -6  -6 -11    5.96    0.53
   6   6  11    6.94    0.55
  -7  -6 -11    0.56    0.34
  -7  -6 -11    0.08    0.30
   7   6  11    0.47    0.26
  -8  -6 -11    5.04    0.53
   8   6  11    6.04    0.52
  -9  -6 -11    2.13    0.41
   9   6  11    2.12    0.36
   8  -7 -11    2.99    0.44
  -8   7  11    4.07    0.48
   7  -7 -11   -0.05    0.27
  -7   7  11    0.01    0.31
   6  -7 -11    1.63    0.35
  -6   7  11    1.10    0.34
   5  -7 -11    3.57    0.41
  -5   7  11    4.19    0.43
   4  -7 -11    0.22    0.25
  -4   7  11    0.49    0.29
   3  -7 -11    4.71    0.44
  -3   7  11    5.30    0.47
   2  -7 -11    3.84    0.42
  -2   7  11    4.52    0.45
   1  -7 -11    0.34    0.27
  -1   7  11    0.98    0.28
   0  -7 -11    0.49    0.27
   0   7  11    0.21    0.25
  -1  -7 -11    3.47    0.39
   1   7  11    3.12    0.37
  -2  -7 -11    0.69    0.29
   2   7  11    0.52    0.25
  -3  -7 -11    3.61    0.43
   3   7  11    3.08    0.38
  -4  -7 -11    0.60    0.30
   4   7  11    0.31    0.25
  -5  -7 -11    1.07    0.34
   5   7  11    0.88    0.28
  -6  -7 -11    2.72    0.43
   6   7  11    2.17    0.35
  -7  -7 -11    2.29    0.41
  -7  -7 -11    1.33    0.36
   7   7  11    1.66    0.32
  -8  -7 -11    0.01    0.35
  -8  -7 -11   -0.34    0.30
   6  -8 -11    0.24    0.31
  -6   8  11    0.10    0.33
   5  -8 -11    0.48    0.31
  -5   8  11    0.34    0.32
   4  -8 -11   -0.06    0.26
  -4   8  11   -0.25    0.28
   3  -8 -11    7.23    0.64
  -3   8  11    7.26    0.63
   2  -8 -11    0.78    0.32
  -2   8  11    0.52    0.29
   1  -8 -11    8.95    0.67
  -1   8  11    7.77    0.65
   0  -8 -11    5.17    0.49
   0   8  11    4.88    0.49
  -1  -8 -11    4.96    0.49
   1   8  11    5.17    0.48
  -2  -8 -11    2.17    0.37
   2   8  11    2.42    0.37
  -3  -8 -11    1.70    0.39
   3   8  11    1.70    0.33
  -4  -8 -11    0.36    0.31
   4   8  11    0.53    0.27
  -5  -8 -11    1.62    0.39
   5   8  11    0.64    0.29
  -6  -8 -11    0.49    0.33
   2  -9 -11    9.49    0.76
  -2   9  11    8.56    0.71
   1  -9 -11   -0.16    0.29
  -1   9  11    0.08    0.28
   0  -9 -11    9.38    0.74
   0   9  11    7.50    0.68
  -1  -9 -11    0.52    0.35
   1   9  11    0.64    0.31
  -2  -9 -11    0.74    0.35
  -3  -8  12    6.67    0.36
  -2  -8  12   25.19    1.14
  -1  -8  12    0.09    0.13
   0  -8  12    0.81    0.17
   1  -8  12    3.00    0.28
   2  -8  12   -0.05    0.17
   3  -8  12   12.81    0.72
   4  -8  12    0.06    0.21
   5  -8  12    8.88    0.61
  -2  -7  12   21.88    0.99
  -1  -7  12   20.18    0.93
   0  -7  12    1.10    0.17
   1  -7  12   -0.01    0.14
   2  -7  12    8.70    0.51
   3  -7  12    1.22    0.22
   4  -7  12   17.63    0.91
   5  -7  12    1.07    0.25
   6  -7  12   12.37    0.75
   7  -7  12    0.49    0.26
  -9  -6  12    1.08    0.15
  -2  -6  12    7.56    0.36
  -2  -6  12    7.28    0.36
  -1  -6  12    7.22    0.37
  -1  -6  12    7.47    0.38
   0  -6  12    3.80    0.27
   1  -6  12   10.48    0.55
   2  -6  12    7.84    0.46
   3  -6  12   28.13    1.32
   4  -6  12    1.12    0.22
   5  -6  12    8.11    0.53
   6  -6  12    3.07    0.33
   7  -6  12    0.07    0.23
   8  -6  12    4.44    0.44
   9  -6  12    1.46    0.35
 -10  -5  12    0.13    0.15
  -9  -5  12    0.26    0.13
  -8  -5  12    0.36    0.11
  -1  -5  12   14.92    0.70
  -1  -5  12   15.91    0.71
   0  -5  12    0.34    0.09
   0  -5  12    0.39    0.11
   1  -5  12    2.68    0.22
   1  -5  12    2.01    0.19
   2  -5  12   27.85    1.28
   3  -5  12    0.08    0.14
   4  -5  12   15.40    0.79
   5  -5  12   16.08    0.84
   6  -5  12    0.56    0.21
   7  -5  12    7.83    0.56
   8  -5  12    1.74    0.31
   9  -5  12    0.40    0.28
  10  -5  12    0.11    0.29
 -11  -4  12   -0.14    0.16
 -10  -4  12    0.13    0.15
  -9  -4  12    5.40    0.34
  -8  -4  12    4.48    0.28
  -7  -4  12    0.30    0.09
  -7  -4  12    0.24    0.08
  -1  -4  12    0.15    0.08
  -1  -4  12    0.16    0.07
   0  -4  12    0.71    0.11
   0  -4  12    0.58    0.09
   1  -4  12    0.07    0.10
   1  -4  12    0.11    0.08
   2  -4  12    7.18    0.39
   2  -4  12    6.03    0.35
   3  -4  12    4.71    0.34
   4  -4  12    0.23    0.16
   5  -4  12    0.14    0.17
   6  -4  12    0.61    0.20
   7  -4  12    0.49    0.22
   8  -4  12    3.07    0.35
   9  -4  12    0.22    0.26
  10  -4  12    0.18    0.28
  11  -4  12   -0.01    0.30
 -12  -3  12    1.32    0.24
 -11  -3  12    2.02    0.25
 -10  -3  12    1.55    0.21
  -9  -3  12   -0.01    0.13
  -8  -3  12    2.17    0.20
  -7  -3  12    8.85    0.46
  -7  -3  12   10.10    0.47
  -6  -3  12    0.78    0.10
  -6  -3  12    0.69    0.10
  -5  -3  12    1.27    0.11
  -5  -3  12    1.53    0.13
  -2  -3  12   77.01    3.40
  -2  -3  12   80.57    3.40
  -1  -3  12    0.03    0.07
  -1  -3  12    0.10    0.08
   0  -3  12    3.25    0.21
   0  -3  12    3.36    0.23
   1  -3  12    0.65    0.12
   1  -3  12    0.45    0.10
   2  -3  12   13.41    0.67
   2  -3  12   14.87    0.69
  -3   3 -12   21.88    1.01
   3  -3  12   20.70    1.02
   3  -3  12   24.01    1.05
  -4   3 -12   50.11    2.26
   4  -3  12   52.02    2.29
  -5   3 -12    6.03    0.38
   5  -3  12    6.10    0.42
   6  -3  12    5.72    0.43
   7  -3  12    1.02    0.24
   8  -3  12    0.20    0.23
   9  -3  12    7.45    0.57
  10  -3  12    3.68    0.43
  11  -3  12   -0.13    0.27
 -12  -2  12    6.18    0.47
 -11  -2  12    0.26    0.20
 -10  -2  12    7.49    0.47
  -9  -2  12    0.45    0.16
  -8  -2  12    1.29    0.17
  -7  -2  12    7.13    0.37
  -7  -2  12    6.04    0.35
  -6  -2  12    2.87    0.22
  -6  -2  12    2.60    0.20
  -5  -2  12    2.40    0.18
  -5  -2  12    2.71    0.20
  -4  -2  12    4.37    0.25
  -4  -2  12    3.80    0.23
  -3  -2  12   54.52    2.48
  -3  -2  12   59.56    2.48
  -2  -2  12    1.20    0.13
  -2  -2  12    1.55    0.13
  -1  -2  12    7.26    0.37
  -1  -2  12    6.72    0.35
   0  -2  12   30.74    1.33
   0  -2  12   28.66    1.32
   1  -2  12    8.69    0.44
   1  -2  12    7.84    0.42
  -2   2 -12   14.23    0.66
   2  -2  12   12.31    0.66
   2  -2  12   15.78    0.70
  -3   2 -12   30.95    1.35
   3  -2  12   27.81    1.36
   3  -2  12   31.39    1.38
  -4   2 -12   -0.01    0.12
   4  -2  12    0.09    0.11
   4  -2  12    0.26    0.14
  -5   2 -12    6.45    0.39
   5  -2  12    5.68    0.41
  -6   2 -12   19.79    0.97
   6  -2  12   20.42    1.00
  -7   2 -12    8.46    0.52
   7  -2  12    8.29    0.54
  -8   2 -12    3.96    0.35
   8  -2  12    4.93    0.41
  -9   2 -12    9.40    0.62
   9  -2  12   10.84    0.67
  10  -2  12    0.24    0.25
  11  -2  12    0.14    0.28
  12  -2  12    3.65    0.47
 -12  -1  12    3.19    0.34
 -11  -1  12    2.03    0.27
 -10  -1  12    2.99    0.30
  -9  -1  12   33.98    1.56
  -8  -1  12   13.29    0.68
  -7  -1  12    7.51    0.43
  -6  -1  12   95.09    4.33
  -6  -1  12  104.44    4.34
  -5  -1  12   19.89    0.90
  -5  -1  12   18.84    0.89
  -4  -1  12    0.39    0.10
  -4  -1  12    0.29    0.12
  -3  -1  12   15.26    0.72
  -3  -1  12   14.98    0.72
  -3  -1  12   16.08    0.73
  -2  -1  12    9.34    0.47
  -2  -1  12    9.02    0.45
  -1  -1  12  124.93    5.63
  -1  -1  12  135.91    5.64
   0   1 -12   15.93    0.73
   0  -1  12   17.31    0.77
   0  -1  12   15.16    0.75
  -1   1 -12   30.29    1.34
   1  -1  12   27.41    1.35
   1  -1  12   32.64    1.37
  -2   1 -12   21.85    1.00
   2  -1  12   22.92    1.02
   2  -1  12   20.30    1.00
  -3   1 -12    7.81    0.40
   3  -1  12    6.18    0.39
   3  -1  12    7.43    0.43
  -4   1 -12   26.10    1.20
   4  -1  12   25.90    1.22
  -5   1 -12    6.72    0.43
   5  -1  12    6.88    0.45
  -6   1 -12    0.86    0.19
   6  -1  12    0.42    0.19
  -7   1 -12   69.69    3.19
   7  -1  12   73.86    3.22
  -8   1 -12    1.41    0.25
   8  -1  12    1.60    0.28
  -9   1 -12   27.77    1.36
   9  -1  12   27.74    1.38
 -10   1 -12    2.51    0.34
  10  -1  12    2.44    0.37
 -11   1 -12    2.72    0.36
  11  -1  12    2.06    0.37
  12  -1  12    5.78    0.55
 -12   0  12    1.01    0.27
 -11   0  12    1.13    0.25
 -10   0  12   16.62    0.87
  -9   0  12   -0.06    0.18
  -8   0  12   66.26    2.94
  -7   0  12   42.70    1.92
  -5   0  12   22.02    1.03
   4   0 -12   62.57    2.85
  -4   0  12   68.29    2.87
   2   0 -12  144.07    6.46
  -2   0  12  155.98    6.49
   1   0 -12   46.05    2.01
  -1   0  12   48.30    2.04
  -1   0  12   43.01    2.02
   0   0 -12   49.08    2.14
   0   0  12   44.96    2.14
   0   0  12   51.75    2.16
  -1   0 -12   35.21    1.54
   1   0  12   35.77    1.55
   1   0  12   31.88    1.54
  -2   0 -12   11.45    0.56
  -2   0 -12   11.37    0.56
   2   0  12    9.76    0.55
   2   0  12   10.89    0.58
  -3   0 -12    0.60    0.15
   3   0  12    0.56    0.16
  -4   0 -12    2.61    0.24
   4   0  12    2.26    0.24
  -5   0 -12    9.44    0.53
   5   0  12    8.65    0.54
  -6   0 -12   35.56    1.65
   6   0  12   35.54    1.66
  -7   0 -12   75.10    3.40
   7   0  12   77.69    3.42
  -8   0 -12   68.16    3.10
   8   0  12   70.13    3.12
  -9   0 -12   27.18    1.37
   9   0  12   28.74    1.40
 -10   0 -12    9.67    0.67
  10   0  12   10.59    0.71
 -11   0 -12   16.51    0.96
  11   0  12   17.34    0.99
 -12   0 -12    0.50    0.30
  12   0  12    0.30    0.32
 -12   1  12    2.84    0.36
 -11   1  12    2.10    0.31
 -10   1  12    2.62    0.32
  -9   1  12   34.99    1.64
  -8   1  12   13.29    0.72
  -7   1  12    6.74    0.45
   6  -1 -12   99.10    4.38
  -6   1  12  102.51    4.41
   5  -1 -12   19.50    0.89
  -5   1  12   19.84    0.92
  -5   1  12   17.70    0.90
   4  -1 -12    0.39    0.12
  -4   1  12    0.55    0.16
  -4   1  12    0.32    0.12
   3  -1 -12   15.61    0.71
  -3   1  12   15.89    0.74
  -3   1  12   13.99    0.72
  -3   1  12   14.08    0.72
   2  -1 -12    9.49    0.49
  -2   1  12   10.09    0.52
  -2   1  12    8.79    0.49
   1  -1 -12  127.68    5.30
  -1   1  12  112.18    5.30
  -1   1  12  126.46    5.31
   0  -1 -12   17.63    0.80
   0   1  12   17.44    0.82
   0   1  12   14.78    0.79
  -1  -1 -12   31.78    1.37
   1   1  12   32.08    1.38
   1   1  12   26.03    1.35
  -2  -1 -12   23.02    1.07
  -2  -1 -12   22.75    1.07
   2   1  12   22.52    1.08
  -3  -1 -12    7.86    0.46
   3   1  12    7.69    0.47
  -4  -1 -12   26.20    1.28
   4   1  12   28.32    1.30
  -5  -1 -12    6.72    0.44
   5   1  12    6.48    0.45
  -6  -1 -12    0.93    0.21
   6   1  12    0.78    0.20
  -7  -1 -12   72.97    3.27
   7   1  12   73.06    3.28
  -8  -1 -12    1.72    0.29
   8   1  12    1.52    0.27
  -9  -1 -12   28.07    1.37
   9   1  12   26.92    1.38
 -10  -1 -12    2.27    0.35
  10   1  12    2.85    0.39
 -11  -1 -12    2.12    0.35
  11   1  12    2.53    0.39
 -12  -1 -12    5.33    0.51
  12   1  12    5.40    0.54
 -12   2  12    4.87    0.47
 -11   2  12    0.52    0.28
 -10   2  12    7.70    0.57
  -9   2  12    0.40    0.23
  -8   2  12    1.39    0.25
  -7   2  12    6.89    0.48
   6  -2 -12    2.78    0.25
  -6   2  12    2.76    0.28
   5  -2 -12    2.54    0.24
  -5   2  12    2.52    0.26
   4  -2 -12    3.43    0.29
  -4   2  12    3.54    0.30
   3  -2 -12   58.49    2.62
  -3   2  12   60.02    2.64
   2  -2 -12    1.30    0.18
  -2   2  12    0.97    0.19
   1  -2 -12    6.69    0.41
  -1   2  12    7.04    0.44
   0  -2 -12   32.41    1.44
   0   2  12   30.43    1.45
  -1  -2 -12    8.14    0.48
   1   2  12    8.63    0.51
  -2  -2 -12   15.78    0.80
   2   2  12   15.76    0.81
  -3  -2 -12   33.97    1.58
  -3  -2 -12   33.85    1.58
   3   2  12   35.00    1.60
  -4  -2 -12    0.13    0.17
   4   2  12    0.29    0.18
  -5  -2 -12    6.88    0.47
   5   2  12    5.83    0.45
  -6  -2 -12   19.92    1.04
   6   2  12   21.72    1.06
  -7  -2 -12    8.37    0.57
   7   2  12    8.37    0.58
  -8  -2 -12    5.34    0.47
   8   2  12    5.31    0.46
  -9  -2 -12   11.20    0.72
   9   2  12   10.24    0.70
 -10  -2 -12   -0.05    0.28
  10   2  12    0.40    0.27
 -11  -2 -12    0.49    0.31
  11   2  12    0.22    0.28
 -12  -2 -12    2.45    0.42
  12   2  12    3.14    0.44
 -12   3  12    1.72    0.36
 -11   3  12    2.42    0.39
 -10   3  12    1.02    0.31
  -9   3  12    0.28    0.25
  -8   3  12    2.36    0.33
   7  -3 -12    9.48    0.58
  -7   3  12   10.87    0.64
   6  -3 -12    0.57    0.19
  -6   3  12    0.92    0.24
   5  -3 -12    1.54    0.21
  -5   3  12    1.28    0.24
   4  -3 -12    1.60    0.22
  -4   3  12    2.09    0.27
   3  -3 -12    0.48    0.17
  -3   3  12    0.25    0.17
   2  -3 -12   80.63    3.59
  -2   3  12   82.47    3.61
   1  -3 -12   -0.15    0.14
  -1   3  12   -0.21    0.15
   0  -3 -12    3.81    0.31
   0   3  12    3.07    0.30
  -1  -3 -12    0.66    0.17
   1   3  12    0.24    0.17
  -2  -3 -12   15.23    0.81
   2   3  12   16.21    0.83
  -3  -3 -12   24.76    1.21
  -3  -3 -12   24.83    1.21
   3   3  12   25.54    1.22
  -4  -3 -12   54.36    2.51
   4   3  12   56.59    2.52
  -5  -3 -12    6.59    0.48
   5   3  12    6.16    0.48
  -6  -3 -12    5.45    0.48
   6   3  12    6.38    0.49
  -7  -3 -12    0.80    0.27
   7   3  12    1.07    0.27
  -8  -3 -12    0.43    0.26
   8   3  12    0.14    0.24
  -9  -3 -12    6.74    0.58
   9   3  12    5.99    0.54
 -10  -3 -12    4.09    0.44
  10   3  12    2.98    0.39
 -11  -3 -12   -0.04    0.30
  11   3  12    0.00    0.26
 -11   4  12    0.53    0.32
 -10   4  12    0.38    0.31
  -9   4  12    5.49    0.51
  -8   4  12    5.68    0.50
   7  -4 -12    0.13    0.21
  -7   4  12    0.24    0.24
   6  -4 -12   10.95    0.67
  -6   4  12   13.17    0.73
   5  -4 -12    0.18    0.18
  -5   4  12    0.10    0.21
   4  -4 -12    0.16    0.18
  -4   4  12    0.27    0.20
   3  -4 -12    4.79    0.41
  -3   4  12    5.58    0.45
   2  -4 -12    4.76    0.41
  -2   4  12    4.93    0.41
   1  -4 -12    0.07    0.17
  -1   4  12    0.03    0.19
   0  -4 -12    0.75    0.20
   0   4  12    0.97    0.23
  -1  -4 -12    0.32    0.19
   1   4  12    0.25    0.20
  -2  -4 -12    8.32    0.54
   2   4  12    7.41    0.52
  -3  -4 -12    5.23    0.44
   3   4  12    5.20    0.44
  -4  -4 -12    0.20    0.22
  -4  -4 -12    0.44    0.24
   4   4  12    0.73    0.23
  -5  -4 -12    0.06    0.23
  -5  -4 -12    0.09    0.22
   5   4  12    0.26    0.22
  -6  -4 -12    0.04    0.23
   6   4  12    0.26    0.23
  -7  -4 -12    0.39    0.25
   7   4  12    0.11    0.21
  -8  -4 -12    2.76    0.38
   8   4  12    2.83    0.37
  -9  -4 -12    0.37    0.29
   9   4  12    0.45    0.27
 -10  -4 -12    0.15    0.30
  10   4  12    0.28    0.29
 -11  -4 -12   -0.02    0.33
  11   4  12   -0.48    0.27
 -10   5  12    0.29    0.33
  -9   5  12    0.03    0.30
  -8   5  12    0.55    0.31
   7  -5 -12    2.88    0.35
  -7   5  12    2.99    0.38
   6  -5 -12    1.17    0.26
  -6   5  12    1.08    0.28
   5  -5 -12    2.85    0.34
  -5   5  12    2.94    0.35
   4  -5 -12    0.41    0.21
  -4   5  12    0.47    0.25
   3  -5 -12    4.76    0.41
  -3   5  12    5.52    0.47
   2  -5 -12    0.23    0.21
  -2   5  12    0.19    0.21
   1  -5 -12   16.66    0.91
  -1   5  12   17.79    0.92
   0  -5 -12    0.44    0.22
   0   5  12    0.60    0.23
  -1  -5 -12    2.63    0.34
   1   5  12    2.92    0.34
  -2  -5 -12   28.05    1.42
   2   5  12   31.02    1.44
  -3  -5 -12    0.56    0.24
   3   5  12    0.11    0.21
  -4  -5 -12   16.37    0.94
   4   5  12   17.34    0.93
  -5  -5 -12   18.73    0.98
  -5  -5 -12   18.38    0.99
   5   5  12   16.44    0.96
  -6  -5 -12    0.88    0.28
  -6  -5 -12    0.41    0.26
   6   5  12    0.32    0.25
  -7  -5 -12    7.07    0.63
   7   5  12    7.47    0.60
  -8  -5 -12    0.53    0.33
   8   5  12    1.01    0.30
  -9  -5 -12    0.10    0.34
   9   5  12   -0.05    0.26
 -10  -5 -12    0.43    0.35
  10   5  12   -0.23    0.26
  -9   6  12    0.80    0.36
  -8   6  12    2.42    0.43
   7  -6 -12    1.62    0.33
  -7   6  12    1.88    0.37
   6  -6 -12    0.44    0.26
  -6   6  12    0.37    0.30
   5  -6 -12    9.54    0.67
  -5   6  12   10.84    0.71
   4  -6 -12   -0.05    0.22
  -4   6  12    0.50    0.26
   3  -6 -12   15.73    0.91
  -3   6  12   16.49    0.92
   2  -6 -12    8.59    0.63
  -2   6  12    9.71    0.64
   1  -6 -12    8.65    0.62
  -1   6  12    9.02    0.62
   0  -6 -12    3.53    0.37
   0   6  12    4.06    0.38
  -1  -6 -12   11.62    0.71
   1   6  12   10.84    0.71
  -2  -6 -12    8.83    0.63
   2   6  12    8.82    0.62
  -3  -6 -12   30.60    1.54
   3   6  12   32.21    1.54
  -4  -6 -12    1.42    0.30
   4   6  12    1.56    0.31
  -5  -6 -12    9.78    0.70
   5   6  12    8.55    0.64
  -6  -6 -12    2.54    0.39
  -6  -6 -12    3.27    0.40
   6   6  12    2.82    0.35
  -7  -6 -12    0.62    0.34
  -7  -6 -12    0.47    0.31
   7   6  12   -0.13    0.24
  -8  -6 -12    4.00    0.47
  -8  -6 -12    3.48    0.45
   8   6  12    4.51    0.46
  -9  -6 -12    1.76    0.40
   9   6  12    2.48    0.39
  -8   7  12    1.64    0.40
   7  -7 -12    0.33    0.30
  -7   7  12    0.52    0.34
   6  -7 -12   17.57    1.01
  -6   7  12   17.31    1.03
   5  -7 -12    4.63    0.46
  -5   7  12    4.86    0.48
   4  -7 -12   32.66    1.66
  -4   7  12   34.84    1.67
   3  -7 -12   15.91    0.94
  -3   7  12   16.64    0.95
   2  -7 -12   22.86    1.23
  -2   7  12   24.04    1.24
   1  -7 -12   22.40    1.17
  -1   7  12   21.28    1.17
   0  -7 -12    0.92    0.31
   0   7  12    1.73    0.33
  -1  -7 -12   -0.04    0.27
   1   7  12    0.12    0.25
  -2  -7 -12   10.33    0.73
   2   7  12   10.54    0.71
  -3  -7 -12    1.46    0.35
   3   7  12    1.15    0.30
  -4  -7 -12   19.04    1.07
   4   7  12   18.82    1.06
  -5  -7 -12    1.54    0.35
   5   7  12    1.24    0.31
  -6  -7 -12   12.66    0.86
   6   7  12   12.42    0.81
  -7  -7 -12    0.46    0.34
   7   7  12    0.63    0.29
   5  -8 -12   20.72    1.21
  -5   8  12   23.31    1.24
   4  -8 -12    5.09    0.53
  -4   8  12    5.51    0.54
   3  -8 -12    7.04    0.62
  -3   8  12    7.71    0.65
   2  -8 -12   27.19    1.44
  -2   8  12   27.82    1.42
   1  -8 -12   -0.06    0.29
  -1   8  12    0.26    0.29
   0  -8 -12    0.51    0.31
   0   8  12    1.59    0.34
  -1  -8 -12    2.58    0.39
   1   8  12    3.09    0.41
  -2  -8 -12    0.15    0.29
   2   8  12    0.37    0.30
  -3  -8 -12   13.75    0.90
   3   8  12   13.01    0.84
  -4  -8 -12    0.17    0.34
   4   8  12    0.63    0.29
  -5  -8 -12    9.09    0.72
   5   8  12    8.08    0.68
  -2  -8  13    2.29    0.19
  -1  -8  13    0.26    0.13
   0  -8  13    0.71    0.17
   1  -8  13    3.37    0.29
   2  -8  13    0.02    0.18
   3  -8  13    0.17    0.21
   4  -8  13    0.85    0.25
  -2  -7  13    0.03    0.09
  -1  -7  13    0.21    0.12
   0  -7  13    0.65    0.15
   1  -7  13    3.34    0.30
   2  -7  13    0.13    0.16
   3  -7  13    2.53    0.28
   4  -7  13    0.36    0.20
   5  -7  13    7.58    0.54
   6  -7  13    1.92    0.31
  -1  -6  13    2.77    0.21
  -1  -6  13    2.65    0.19
   0  -6  13    2.74    0.24
   1  -6  13    0.58    0.15
   2  -6  13    3.12    0.27
   3  -6  13    6.14    0.42
   4  -6  13    2.04    0.26
   5  -6  13    1.69    0.26
   6  -6  13    1.41    0.27
   7  -6  13    6.94    0.55
   8  -6  13    8.08    0.63
 -10  -5  13   -0.01    0.14
  -9  -5  13    8.02    0.42
  -1  -5  13   56.89    2.56
  -1  -5  13   61.15    2.57
   0  -5  13   38.61    1.62
   0  -5  13   34.58    1.61
   1  -5  13   48.91    2.16
   2  -5  13    0.22    0.14
   3  -5  13    4.04    0.33
   4  -5  13    1.14    0.21
   5  -5  13    2.80    0.30
   6  -5  13    2.69    0.31
   7  -5  13   12.37    0.74
   8  -5  13   11.16    0.72
   9  -5  13    9.62    0.70
 -11  -4  13    3.05    0.28
 -10  -4  13    8.65    0.48
  -9  -4  13    1.47    0.17
  -8  -4  13    3.32    0.23
  -7  -4  13    0.43    0.08
  -1  -4  13   62.08    2.60
  -1  -4  13   57.35    2.59
   0  -4  13   68.90    2.90
   0  -4  13   64.28    2.89
   1  -4  13    0.52    0.10
   1  -4  13    0.79    0.14
   2  -4  13   39.67    1.78
   3  -4  13   34.50    1.57
   4  -4  13    6.70    0.44
   5  -4  13   11.46    0.65
   6  -4  13    3.15    0.32
   7  -4  13    5.29    0.47
   8  -4  13    6.06    0.53
   9  -4  13    8.99    0.66
  10  -4  13    3.42    0.43
 -11  -3  13    0.12    0.18
 -10  -3  13   13.36    0.69
  -9  -3  13    3.03    0.27
  -8  -3  13    6.62    0.38
  -7  -3  13   10.01    0.49
  -7  -3  13   10.45    0.50
  -6  -3  13    7.37    0.36
  -6  -3  13    7.18    0.36
  -5  -3  13    0.81    0.09
  -5  -3  13    0.67    0.09
  -5  -3  13    0.68    0.09
  -3  -3  13   15.50    0.71
  -3  -3  13   16.17    0.71
  -2  -3  13   19.33    0.84
  -2  -3  13   18.01    0.83
  -1  -3  13    7.73    0.39
  -1  -3  13    8.30    0.41
   0  -3  13   14.29    0.68
   0  -3  13   14.98    0.69
   1  -3  13   37.49    1.61
   1  -3  13   34.68    1.60
   2  -3  13   20.48    0.92
   2  -3  13   18.55    0.90
   3  -3  13    7.10    0.43
   4  -3  13   43.72    1.98
   5  -3  13    1.11    0.20
   6  -3  13   16.71    0.87
   7  -3  13    1.27    0.26
   8  -3  13    0.46    0.23
   9  -3  13   11.96    0.76
  10  -3  13    0.86    0.29
  11  -3  13    4.23    0.47
 -12  -2  13    2.07    0.29
 -11  -2  13   11.27    0.64
 -10  -2  13    0.92    0.20
  -9  -2  13   17.10    0.84
  -8  -2  13    4.44    0.32
  -7  -2  13    4.20    0.30
  -6  -2  13   11.99    0.59
  -6  -2  13   12.25    0.58
  -5  -2  13   35.08    1.50
  -5  -2  13   32.43    1.49
  -4  -2  13    5.18    0.28
  -4  -2  13    4.36    0.26
  -3  -2  13   15.78    0.73
  -3  -2  13   16.14    0.74
  -2  -2  13    6.93    0.37
  -2  -2  13    7.69    0.38
  -1  -2  13   12.42    0.60
  -1  -2  13   13.19    0.62
   0  -2  13    1.36    0.16
   0  -2  13    1.34    0.14
   1  -2  13   -0.02    0.11
   1  -2  13    0.01    0.08
  -2   2 -13    0.98    0.13
  -2   2 -13    1.11    0.13
   2  -2  13    1.00    0.16
   2  -2  13    0.87    0.12
  -3   2 -13    6.89    0.40
   3  -2  13    7.60    0.44
  -4   2 -13   31.19    1.46
   4  -2  13   33.35    1.49
  -5   2 -13    6.46    0.42
   5  -2  13    7.37    0.46
  -6   2 -13    4.24    0.35
   6  -2  13    4.41    0.39
   7  -2  13   25.58    1.26
   8  -2  13   10.04    0.65
   9  -2  13    4.93    0.46
  10  -2  13   10.50    0.73
  11  -2  13   32.19    1.63
 -12  -1  13    5.54    0.48
 -11  -1  13    1.24    0.24
 -10  -1  13   17.61    0.89
  -9  -1  13    1.57    0.22
  -8  -1  13    0.74    0.17
  -7  -1  13    5.24    0.35
  -6  -1  13   45.47    1.93
  -6  -1  13   41.21    1.92
  -5  -1  13    1.75    0.17
  -5  -1  13    1.86    0.19
  -4  -1  13   58.21    2.69
  -4  -1  13   64.92    2.70
  -3  -1  13    0.88    0.14
  -3  -1  13    1.17    0.13
  -2  -1  13   13.42    0.62
  -2  -1  13   12.09    0.60
  -1  -1  13    4.52    0.28
  -1  -1  13    3.30    0.24
   0  -1  13    1.93    0.19
   0  -1  13    1.65    0.15
  -1   1 -13   -0.06    0.09
   1  -1  13    0.04    0.12
   1  -1  13    0.04    0.08
  -2   1 -13    0.66    0.13
  -2   1 -13    0.69    0.13
   2  -1  13    0.55    0.15
   2  -1  13    0.65    0.12
  -3   1 -13   17.49    0.82
   3  -1  13   15.36    0.82
   3  -1  13   18.81    0.85
  -4   1 -13    9.97    0.54
   4  -1  13   10.46    0.58
  -5   1 -13   56.19    2.60
   5  -1  13   60.64    2.63
  -6   1 -13   21.34    1.06
   6  -1  13   22.33    1.09
  -7   1 -13    9.05    0.58
   7  -1  13   10.00    0.62
  -8   1 -13    0.68    0.23
   8  -1  13    1.06    0.27
  -9   1 -13    9.39    0.64
   9  -1  13   10.72    0.69
  10  -1  13    6.20    0.53
  11  -1  13    9.83    0.74
 -12   0  13    0.03    0.24
 -11   0  13    0.26    0.23
 -10   0  13    0.07    0.20
  -9   0  13   -0.01    0.18
  -8   0  13   -0.16    0.16
  -7   0  13    0.04    0.16
  -6   0  13    0.23    0.15
  -5   0  13    0.08    0.07
  -5   0  13   -0.03    0.14
  -4   0  13   -0.01    0.07
  -4   0  13   -0.16    0.13
  -3   0  13    0.01    0.03
  -3   0  13   -0.03    0.12
   2   0 -13    0.09    0.09
  -2   0  13    0.26    0.13
  -2   0  13    0.06    0.05
   1   0 -13    0.20    0.10
  -1   0  13    0.08    0.13
  -1   0  13    0.11    0.09
   0   0 -13    0.12    0.10
   0   0  13    0.31    0.13
   0   0  13    0.21    0.10
  -1   0 -13    0.08    0.10
   1   0  13    0.16    0.09
   1   0  13    0.11    0.13
  -2   0 -13    0.13    0.12
  -2   0 -13    0.11    0.12
   2   0  13    0.11    0.14
   2   0  13    0.14    0.10
  -3   0 -13   -0.09    0.12
   3   0  13   -0.03    0.14
  -4   0 -13   -0.09    0.14
   4   0  13    0.01    0.15
  -5   0 -13   -0.14    0.14
   5   0  13   -0.10    0.16
  -6   0 -13   -0.14    0.16
   6   0  13    0.18    0.19
  -7   0 -13   -0.01    0.19
   7   0  13   -0.17    0.19
  -8   0 -13    0.13    0.22
   8   0  13    0.07    0.23
  -9   0 -13   -0.27    0.22
   9   0  13    0.11    0.24
 -10   0 -13    0.07    0.23
  10   0  13   -0.03    0.27
 -11   0 -13   -0.28    0.25
  11   0  13   -0.17    0.28
  12   0  13    0.25    0.32
 -12   1  13    5.65    0.49
 -11   1  13    1.11    0.28
 -10   1  13   17.39    0.93
  -9   1  13    1.55    0.27
  -8   1  13    0.47    0.21
  -7   1  13    5.20    0.41
  -6   1  13   45.27    2.05
   5  -1 -13    1.96    0.19
  -5   1  13    1.61    0.22
   4  -1 -13   60.36    2.64
  -4   1  13   64.69    2.68
  -4   1  13   55.45    2.66
   3  -1 -13    1.02    0.15
  -3   1  13    0.85    0.14
  -3   1  13    1.02    0.15
  -3   1  13    0.87    0.17
   2  -1 -13   13.05    0.63
  -2   1  13   11.57    0.63
  -2   1  13   13.61    0.66
   1  -1 -13    3.75    0.26
  -1   1  13    3.23    0.26
  -1   1  13    3.68    0.31
   0  -1 -13    2.14    0.20
   0   1  13    1.99    0.22
   0   1  13    1.94    0.20
  -1  -1 -13    0.08    0.12
   1   1  13    0.07    0.11
   1   1  13   -0.04    0.14
  -2  -1 -13    0.72    0.16
   2   1  13    0.58    0.18
  -3  -1 -13   18.44    0.92
  -3  -1 -13   18.75    0.92
   3   1  13   19.37    0.94
  -4  -1 -13   10.62    0.60
   4   1  13   10.87    0.62
  -5  -1 -13   55.64    2.58
   5   1  13   59.37    2.60
  -6  -1 -13   20.97    1.06
   6   1  13   21.67    1.08
  -7  -1 -13    9.96    0.63
   7   1  13   10.37    0.65
  -8  -1 -13    1.35    0.29
   8   1  13    0.81    0.26
  -9  -1 -13    9.53    0.69
   9   1  13   10.72    0.70
 -10  -1 -13    6.08    0.53
  10   1  13    5.96    0.52
 -11  -1 -13    9.46    0.69
  11   1  13    8.70    0.71
 -12  -1 -13    7.96    0.70
  12   1  13    8.30    0.70
 -12   2  13    2.11    0.36
 -11   2  13   13.32    0.82
 -10   2  13    1.06    0.28
  -9   2  13   17.92    0.96
  -8   2  13    4.46    0.39
  -7   2  13    4.91    0.42
  -6   2  13   13.83    0.75
   5  -2 -13   34.87    1.61
  -5   2  13   35.92    1.64
   4  -2 -13    4.55    0.34
  -4   2  13    5.31    0.39
   3  -2 -13   16.18    0.80
  -3   2  13   16.35    0.83
   2  -2 -13    7.38    0.45
  -2   2  13    8.02    0.49
   1  -2 -13   13.10    0.68
  -1   2  13   13.59    0.71
   0  -2 -13    1.45    0.20
   0   2  13    1.74    0.23
  -1  -2 -13    0.04    0.13
   1   2  13   -0.04    0.16
  -2  -2 -13    1.29    0.22
   2   2  13    1.39    0.23
  -3  -2 -13    7.45    0.49
  -3  -2 -13    7.82    0.48
   3   2  13    7.44    0.50
  -4  -2 -13   32.40    1.55
   4   2  13   33.97    1.57
  -5  -2 -13    7.43    0.51
   5   2  13    6.98    0.50
  -6  -2 -13    4.42    0.38
   6   2  13    3.64    0.36
  -7  -2 -13   25.79    1.32
   7   2  13   27.91    1.34
  -8  -2 -13    9.70    0.65
   8   2  13    9.43    0.65
  -9  -2 -13    3.95    0.43
   9   2  13    5.57    0.48
 -10  -2 -13   11.32    0.76
  10   2  13   10.34    0.74
 -11  -2 -13   31.96    1.66
  11   2  13   33.56    1.66
 -11   3  13    0.51    0.31
 -10   3  13   13.87    0.86
  -9   3  13    2.90    0.37
  -8   3  13    8.59    0.61
  -7   3  13   11.36    0.70
   6  -3 -13    7.48    0.49
  -6   3  13    7.84    0.53
   5  -3 -13    0.89    0.19
  -5   3  13    0.68    0.22
   4  -3 -13   12.34    0.68
  -4   3  13   13.15    0.72
   3  -3 -13   15.86    0.80
  -3   3  13   15.22    0.82
   2  -3 -13   18.32    0.94
  -2   3  13   20.13    0.97
   1  -3 -13    8.15    0.50
  -1   3  13    7.88    0.52
   0  -3 -13   15.37    0.80
   0   3  13   15.64    0.82
  -1  -3 -13   38.84    1.80
   1   3  13   39.36    1.81
  -2  -3 -13   22.39    1.10
   2   3  13   22.52    1.11
  -3  -3 -13    7.98    0.53
   3   3  13    7.99    0.54
  -4  -3 -13   46.89    2.18
  -4  -3 -13   47.84    2.18
   4   3  13   47.91    2.19
  -5  -3 -13    1.12    0.25
   5   3  13    0.88    0.23
  -6  -3 -13   16.73    0.94
   6   3  13   17.67    0.94
  -7  -3 -13    1.64    0.30
   7   3  13    1.42    0.28
  -8  -3 -13    0.16    0.26
   8   3  13    0.23    0.24
  -9  -3 -13   11.68    0.76
   9   3  13   10.96    0.75
 -10  -3 -13   -0.02    0.30
  10   3  13    0.10    0.29
 -11  -3 -13    3.58    0.46
  11   3  13    3.99    0.46
 -11   4  13    3.05    0.44
 -10   4  13    9.68    0.72
  -9   4  13    1.60    0.35
  -8   4  13    4.21    0.43
  -7   4  13    0.25    0.25
   6  -4 -13    9.04    0.57
  -6   4  13    8.69    0.62
   5  -4 -13    1.73    0.26
  -5   4  13    2.07    0.31
   4  -4 -13   14.62    0.78
  -4   4  13   14.58    0.82
   3  -4 -13   24.46    1.22
  -3   4  13   25.95    1.25
   2  -4 -13    8.75    0.55
  -2   4  13    8.55    0.57
   1  -4 -13   63.21    2.85
  -1   4  13   63.91    2.86
   0  -4 -13   73.77    3.26
   0   4  13   72.33    3.27
  -1  -4 -13    0.91    0.23
   1   4  13    0.51    0.22
  -2  -4 -13   42.49    1.97
   2   4  13   42.52    1.97
  -3  -4 -13   35.67    1.74
   3   4  13   38.50    1.75
  -4  -4 -13    7.20    0.54
  -4  -4 -13    6.70    0.54
   4   4  13    6.66    0.53
  -5  -4 -13   13.66    0.78
  -5  -4 -13   13.05    0.77
   5   4  13   13.08    0.79
  -6  -4 -13    4.01    0.40
   6   4  13    3.14    0.36
  -7  -4 -13    5.13    0.46
   7   4  13    5.15    0.46
  -8  -4 -13    5.59    0.51
   8   4  13    5.61    0.50
  -9  -4 -13    9.22    0.74
   9   4  13    9.09    0.69
 -10  -4 -13    3.03    0.44
  10   4  13    2.96    0.43
 -10   5  13    0.27    0.35
  -9   5  13    8.92    0.71
  -8   5  13    0.68    0.33
  -7   5  13   31.37    1.56
   6  -5 -13    2.15    0.32
  -6   5  13    2.46    0.36
   5  -5 -13   10.15    0.63
  -5   5  13    9.00    0.65
   4  -5 -13    0.31    0.21
  -4   5  13   -0.04    0.23
   3  -5 -13    0.06    0.21
  -3   5  13    0.06    0.23
   2  -5 -13    8.96    0.59
  -2   5  13    8.49    0.60
   1  -5 -13   64.30    2.96
  -1   5  13   66.94    2.97
   0  -5 -13   40.20    1.89
   0   5  13   40.69    1.90
  -1  -5 -13   52.45    2.40
   1   5  13   51.76    2.40
  -2  -5 -13    0.09    0.21
   2   5  13   -0.18    0.22
  -3  -5 -13    4.13    0.40
   3   5  13    5.11    0.45
  -4  -5 -13    1.48    0.29
   4   5  13    0.90    0.26
  -5  -5 -13    3.42    0.40
  -5  -5 -13    3.34    0.40
   5   5  13    3.24    0.39
  -6  -5 -13    2.91    0.39
  -6  -5 -13    3.07    0.41
   6   5  13    4.03    0.43
  -7  -5 -13   12.30    0.83
  -7  -5 -13   13.69    0.86
   7   5  13   13.32    0.82
  -8  -5 -13   11.98    0.84
   8   5  13   12.62    0.81
  -9  -5 -13   10.27    0.80
   9   5  13   10.18    0.74
  -8   6  13   18.03    1.07
  -7   6  13    0.20    0.32
   6  -6 -13   11.04    0.76
  -6   6  13   13.39    0.82
   5  -6 -13    2.48    0.34
  -5   6  13    3.64    0.43
   4  -6 -13    0.42    0.25
  -4   6  13    0.20    0.28
   3  -6 -13    1.89    0.31
  -3   6  13    1.82    0.34
   2  -6 -13    0.35    0.25
  -2   6  13    0.10    0.27
   1  -6 -13    3.06    0.37
  -1   6  13    2.61    0.36
   0  -6 -13    2.59    0.35
   0   6  13    3.48    0.40
  -1  -6 -13    0.66    0.27
   1   6  13    0.34    0.25
  -2  -6 -13    3.83    0.43
   2   6  13    4.17    0.45
  -3  -6 -13    6.64    0.57
   3   6  13    7.10    0.59
  -4  -6 -13    1.69    0.34
   4   6  13    2.18    0.34
  -5  -6 -13    1.33    0.33
   5   6  13    1.89    0.34
  -6  -6 -13    1.18    0.33
   6   6  13    1.06    0.30
  -7  -6 -13    7.31    0.65
  -7  -6 -13    8.97    0.69
   7   6  13    7.07    0.62
  -8  -6 -13    9.30    0.71
  -8  -6 -13    6.80    0.62
   8   6  13    7.07    0.64
  -7   7  13    5.08    0.54
   6  -7 -13    6.07    0.55
  -6   7  13    8.06    0.64
   5  -7 -13    1.37    0.33
  -5   7  13    1.56    0.37
   4  -7 -13    1.40    0.31
  -4   7  13    0.97    0.32
   3  -7 -13    0.24    0.27
  -3   7  13    0.01    0.27
   2  -7 -13    0.07    0.26
  -2   7  13    0.24    0.26
   1  -7 -13   -0.10    0.26
  -1   7  13    0.40    0.28
   0  -7 -13    1.01    0.30
   0   7  13    1.09    0.32
  -1  -7 -13    3.35    0.40
   1   7  13    3.84    0.44
  -2  -7 -13    0.14    0.27
   2   7  13   -0.04    0.25
  -3  -7 -13    3.28    0.44
   3   7  13    3.03    0.41
  -4  -7 -13    0.69    0.33
   4   7  13    0.77    0.29
  -5  -7 -13    8.28    0.71
   5   7  13    8.93    0.69
  -6  -7 -13    2.40    0.42
   6   7  13    2.16    0.38
   4  -8 -13    1.51    0.34
  -4   8  13    1.84    0.38
   3  -8 -13    0.02    0.29
  -3   8  13    0.08    0.31
   2  -8 -13    3.26    0.46
  -2   8  13    2.62    0.42
   1  -8 -13    0.09    0.30
  -1   8  13    0.45    0.30
   0  -8 -13   -0.05    0.29
   0   8  13    0.97    0.35
  -1  -8 -13    3.61    0.44
   1   8  13    2.94    0.42
  -2  -8 -13    0.30    0.30
   2   8  13    0.41    0.30
  -3  -8 -13    0.62    0.32
   3   8  13    0.19    0.29
  -4  -8 -13    0.52    0.35
   4   8  13    1.09    0.32
  -1  -8  14    1.46    0.17
   0  -8  14    0.71    0.17
   1  -8  14    4.06    0.34
   2  -8  14    0.37    0.19
  -1  -7  14    5.98    0.34
   0  -7  14    1.65    0.19
   1  -7  14    4.79    0.35
   2  -7  14    0.77    0.19
   3  -7  14   16.72    0.86
   4  -7  14    3.06    0.32
   5  -7  14   19.68    1.03
  -1  -6  14   12.63    0.60
   0  -6  14   10.83    0.55
   1  -6  14    5.48    0.36
   2  -6  14    4.20    0.34
   3  -6  14    5.68    0.42
   4  -6  14    6.52    0.47
   5  -6  14    8.54    0.57
   6  -6  14    1.10    0.26
   7  -6  14   -0.20    0.23
  -1  -5  14    0.26    0.08
  -1  -5  14    0.12    0.10
   0  -5  14    9.79    0.50
   1  -5  14    7.68    0.43
   2  -5  14    0.11    0.14
   3  -5  14   10.48    0.58
   4  -5  14    3.06    0.30
   5  -5  14    0.11    0.19
   6  -5  14    0.55    0.22
   7  -5  14    1.67    0.30
   8  -5  14   -0.21    0.24
   9  -5  14    1.29    0.33
 -10  -4  14    0.52    0.16
  -9  -4  14    0.37    0.13
  -8  -4  14    1.50    0.14
  -2  -4  14    1.95    0.14
  -1  -4  14    1.05    0.13
  -1  -4  14    1.03    0.11
   0  -4  14   26.32    1.16
   0  -4  14   24.70    1.14
   1  -4  14    9.94    0.52
   2  -4  14    0.58    0.15
   3  -4  14    2.55    0.25
   4  -4  14    0.03    0.16
   5  -4  14    2.43    0.28
   6  -4  14    2.09    0.28
   7  -4  14    0.65    0.23
   8  -4  14   -0.11    0.23
   9  -4  14    0.94    0.30
  10  -4  14    0.45    0.30
 -11  -3  14    1.68    0.23
 -10  -3  14    0.48    0.17
  -9  -3  14    6.24    0.39
  -8  -3  14    0.01    0.12
  -7  -3  14    2.34    0.21
  -6  -3  14    0.48    0.10
  -6  -3  14    0.35    0.09
  -5  -3  14   22.54    0.98
  -5  -3  14   21.66    0.98
  -4  -3  14    6.51    0.32
  -4  -3  14    6.06    0.31
  -3  -3  14   38.29    1.70
  -3  -3  14   39.51    1.70
  -2  -3  14    0.03    0.07
  -2  -3  14   -0.03    0.09
  -1  -3  14    3.39    0.21
  -1  -3  14    3.63    0.24
   0  -3  14    1.99    0.16
   0  -3  14    1.93    0.18
   1  -3  14   35.34    1.68
   1  -3  14   40.49    1.70
   2  -3  14   10.10    0.55
   3  -3  14    7.21    0.44
   4  -3  14    6.60    0.43
   5  -3  14    0.68    0.19
   6  -3  14    5.87    0.45
   7  -3  14    1.53    0.26
   8  -3  14   10.67    0.69
   9  -3  14    0.36    0.27
  10  -3  14    0.44    0.29
 -11  -2  14    0.76    0.21
 -10  -2  14    1.22    0.22
  -9  -2  14    0.88    0.18
  -8  -2  14   -0.07    0.13
  -7  -2  14    8.44    0.45
  -6  -2  14    3.33    0.23
  -6  -2  14    3.53    0.26
  -5  -2  14    0.51    0.10
  -5  -2  14    0.78    0.11
  -5  -2  14    0.59    0.12
  -4  -2  14   17.91    0.79
  -4  -2  14   16.20    0.78
  -3  -2  14    6.90    0.37
  -3  -2  14    7.40    0.38
  -2  -2  14    0.87    0.14
  -2  -2  14    1.00    0.12
  -1  -2  14   57.95    2.46
  -1  -2  14   53.95    2.45
   0  -2  14   13.55    0.67
   0  -2  14   14.73    0.69
   1  -2  14    1.81    0.17
   1  -2  14    1.91    0.20
   2  -2  14   46.60    2.08
   3  -2  14   14.22    0.73
   4  -2  14    8.13    0.50
   5  -2  14   11.62    0.66
   6  -2  14    6.23    0.48
   7  -2  14    1.11    0.25
   8  -2  14   -0.20    0.23
   9  -2  14   12.78    0.80
  10  -2  14    0.06    0.28
  11  -2  14    0.73    0.33
 -11  -1  14    0.12    0.21
 -10  -1  14   15.67    0.82
  -9  -1  14    3.07    0.29
  -8  -1  14   38.29    1.74
  -7  -1  14   14.37    0.72
  -6  -1  14    1.47    0.19
  -5  -1  14   22.97    1.01
  -5  -1  14   20.25    0.99
  -4  -1  14   10.28    0.53
  -4  -1  14   11.18    0.55
  -3  -1  14    1.60    0.16
  -3  -1  14    1.86    0.19
  -2  -1  14    1.30    0.14
  -2  -1  14    1.64    0.18
  -1  -1  14    2.86    0.23
  -1  -1  14    3.88    0.27
   0  -1  14   59.87    2.63
  -1   1 -14   10.74    0.52
   1  -1  14   11.15    0.57
   1  -1  14    9.89    0.53
  -2   1 -14   34.12    1.53
   2  -1  14   34.19    1.56
  -3   1 -14   10.15    0.55
   3  -1  14   11.27    0.59
  -4   1 -14    1.32    0.19
   4  -1  14    1.73    0.23
  -5   1 -14   14.36    0.76
   5  -1  14   15.83    0.80
  -6   1 -14   24.70    1.25
   6  -1  14   28.16    1.29
   7  -1  14    3.59    0.38
   8  -1  14   42.51    2.00
   9  -1  14    2.71    0.36
  10  -1  14    6.40    0.57
  11  -1  14    4.82    0.51
 -12   0  14    7.66    0.58
 -11   0  14    2.45    0.32
 -10   0  14    0.35    0.21
  -9   0  14   19.58    0.99
  -8   0  14   38.96    1.79
  -7   0  14   29.50    1.37
  -6   0  14   26.60    1.24
  -5   0  14    1.39    0.20
  -4   0  14   12.13    0.63
  -3   0  14    0.74    0.16
   2   0 -14    2.67    0.20
  -2   0  14    2.66    0.24
   1   0 -14   23.53    1.05
  -1   0  14   21.30    1.06
  -1   0  14   24.53    1.09
   0   0 -14    0.27    0.11
   0   0  14    0.13    0.10
   0   0  14    0.38    0.14
  -1   0 -14   71.48    3.10
   1   0  14   77.44    3.13
   1   0  14   63.43    3.10
  -2   0 -14    4.84    0.33
   2   0  14    5.05    0.37
  -3   0 -14   54.49    2.42
  -3   0 -14   54.13    2.42
   3   0  14   54.67    2.44
  -4   0 -14   13.13    0.70
   4   0  14   13.54    0.72
  -5   0 -14   -0.03    0.15
   5   0  14    0.24    0.18
  -6   0 -14   21.68    1.09
   6   0  14   22.53    1.12
  -7   0 -14   15.60    0.84
   7   0  14   15.70    0.87
  -8   0 -14   11.76    0.72
   8   0  14   12.11    0.75
  -9   0 -14   65.10    2.98
   9   0  14   65.89    3.00
  10   0  14   15.65    0.94
  11   0  14    0.71    0.31
 -11   1  14    0.44    0.26
 -10   1  14   14.75    0.82
  -9   1  14    3.27    0.34
  -8   1  14   40.71    1.88
  -7   1  14   14.81    0.79
  -6   1  14    1.60    0.23
  -5   1  14   23.85    1.14
  -4   1  14   12.05    0.65
   3  -1 -14    1.79    0.18
  -3   1  14    1.69    0.22
   2  -1 -14    1.42    0.17
  -2   1  14    1.41    0.21
   1  -1 -14    3.00    0.26
  -1   1  14    3.14    0.28
   0  -1 -14   94.29    4.13
   0   1  14   95.15    4.16
  -1  -1 -14   11.21    0.58
   1   1  14   10.88    0.61
  -2  -1 -14   35.76    1.67
   2   1  14   37.61    1.69
  -3  -1 -14   10.92    0.61
  -3  -1 -14   10.96    0.61
   3   1  14   11.56    0.64
  -4  -1 -14    1.74    0.24
   4   1  14    1.64    0.24
  -5  -1 -14   14.13    0.79
   5   1  14   15.66    0.81
  -6  -1 -14   26.49    1.31
   6   1  14   27.51    1.33
  -7  -1 -14    3.95    0.37
   7   1  14    3.35    0.36
  -8  -1 -14   35.25    1.79
   8   1  14   40.74    1.83
  -9  -1 -14    2.11    0.34
   9   1  14    2.88    0.39
 -10  -1 -14    5.14    0.49
  10   1  14    5.06    0.51
 -11  -1 -14    4.41    0.50
  11   1  14    5.59    0.55
 -11   2  14    0.65    0.29
 -10   2  14    1.61    0.32
  -9   2  14    0.92    0.26
  -8   2  14    0.18    0.22
  -7   2  14    9.25    0.59
  -6   2  14    3.88    0.35
  -5   2  14    0.39    0.20
   4  -2 -14   17.10    0.84
  -4   2  14   17.55    0.89
   3  -2 -14    7.09    0.43
  -3   2  14    7.33    0.47
   2  -2 -14    1.14    0.18
  -2   2  14    1.04    0.21
   1  -2 -14   58.52    2.72
  -1   2  14   64.61    2.76
   0  -2 -14   14.64    0.76
   0   2  14   15.81    0.80
  -1  -2 -14    2.26    0.24
   1   2  14    2.15    0.26
  -2  -2 -14   48.36    2.25
   2   2  14   51.38    2.27
  -3  -2 -14   14.84    0.78
  -3  -2 -14   14.52    0.77
   3   2  14   14.39    0.79
  -4  -2 -14    8.54    0.55
  -4  -2 -14    8.49    0.55
   4   2  14    8.47    0.56
  -5  -2 -14   12.00    0.71
   5   2  14   13.17    0.74
  -6  -2 -14    6.67    0.54
   6   2  14    7.32    0.54
  -7  -2 -14    0.70    0.26
   7   2  14    1.22    0.29
  -8  -2 -14    0.08    0.24
   8   2  14   -0.17    0.23
  -9  -2 -14   14.13    0.84
   9   2  14   12.71    0.83
 -10  -2 -14   -0.24    0.29
  10   2  14    0.00    0.28
 -11  -2 -14    0.51    0.33
  11   2  14    0.33    0.31
 -11   3  14    2.19    0.38
 -10   3  14   -0.07    0.28
  -9   3  14    6.42    0.56
  -8   3  14    0.21    0.26
  -7   3  14    2.50    0.33
  -6   3  14    0.53    0.24
  -5   3  14   25.19    1.25
   4  -3 -14    6.01    0.44
  -4   3  14    7.23    0.50
   3  -3 -14   40.09    1.91
  -3   3  14   43.91    1.94
   2  -3 -14    0.02    0.16
  -2   3  14   -0.17    0.17
   1  -3 -14    3.48    0.31
  -1   3  14    4.26    0.37
   0  -3 -14    2.49    0.27
   0   3  14    2.09    0.29
  -1  -3 -14   39.95    1.88
   1   3  14   42.08    1.90
  -2  -3 -14    9.35    0.60
   2   3  14   10.48    0.62
  -3  -3 -14    7.38    0.52
   3   3  14    7.41    0.54
  -4  -3 -14    7.44    0.53
  -4  -3 -14    7.38    0.52
   4   3  14    6.83    0.53
  -5  -3 -14    0.53    0.23
  -5  -3 -14    0.78    0.24
   5   3  14    1.12    0.27
  -6  -3 -14    6.41    0.54
   6   3  14    6.81    0.55
  -7  -3 -14    1.26    0.29
   7   3  14    0.97    0.28
  -8  -3 -14   11.07    0.75
   8   3  14   10.85    0.74
  -9  -3 -14    0.29    0.28
   9   3  14    0.63    0.30
 -10  -3 -14    0.42    0.31
  10   3  14    0.36    0.29
 -10   4  14    0.60    0.34
  -9   4  14    0.58    0.31
  -8   4  14    2.17    0.37
  -7   4  14    1.34    0.31
  -6   4  14    1.07    0.29
   5  -4 -14    1.25    0.24
  -5   4  14    1.31    0.29
   4  -4 -14    1.18    0.24
  -4   4  14    1.23    0.27
   3  -4 -14    0.16    0.20
  -3   4  14    0.41    0.23
   2  -4 -14    1.93    0.27
  -2   4  14    2.17    0.31
   1  -4 -14    0.99    0.22
  -1   4  14    1.12    0.24
   0  -4 -14   27.00    1.31
   0   4  14   27.26    1.33
  -1  -4 -14    9.60    0.62
   1   4  14   10.56    0.65
  -2  -4 -14    0.75    0.22
   2   4  14    0.65    0.25
  -3  -4 -14    2.61    0.33
   3   4  14    2.60    0.32
  -4  -4 -14    0.20    0.23
   4   4  14    0.27    0.24
  -5  -4 -14    2.42    0.35
  -5  -4 -14    2.97    0.37
   5   4  14    2.34    0.33
  -6  -4 -14    1.56    0.29
  -6  -4 -14    1.91    0.31
   6   4  14    1.32    0.29
  -7  -4 -14    0.71    0.30
   7   4  14    0.39    0.26
  -8  -4 -14   -0.34    0.28
   8   4  14    0.21    0.26
  -9  -4 -14    1.49    0.39
   9   4  14    1.52    0.36
 -10  -4 -14    0.23    0.35
  10   4  14    0.41    0.32
  -9   5  14    0.06    0.33
  -8   5  14    0.84    0.34
  -7   5  14    0.48    0.32
  -6   5  14    2.26    0.36
   5  -5 -14    8.60    0.59
  -5   5  14    8.56    0.64
   4  -5 -14   -0.04    0.21
  -4   5  14    0.20    0.25
   3  -5 -14    2.72    0.33
  -3   5  14    2.42    0.35
   2  -5 -14   16.71    0.93
  -2   5  14   18.10    0.95
   1  -5 -14    0.42    0.23
  -1   5  14    0.62    0.25
   0  -5 -14   10.61    0.66
   0   5  14   10.60    0.68
  -1  -5 -14    8.44    0.61
   1   5  14   10.21    0.65
  -2  -5 -14   -0.02    0.23
   2   5  14    0.06    0.25
  -3  -5 -14   10.71    0.72
   3   5  14   12.26    0.73
  -4  -5 -14    3.56    0.39
   4   5  14    3.62    0.39
  -5  -5 -14   -0.13    0.25
   5   5  14   -0.11    0.24
  -6  -5 -14    0.25    0.30
  -6  -5 -14    0.78    0.29
   6   5  14    0.11    0.25
  -7  -5 -14    1.17    0.34
  -7  -5 -14    1.46    0.37
   7   5  14    0.88    0.30
  -8  -5 -14    0.37    0.32
   8   5  14   -0.24    0.26
  -9  -5 -14    0.93    0.36
   9   5  14    0.95    0.32
  -8   6  14    1.78    0.40
  -7   6  14    1.26    0.36
  -6   6  14    3.70    0.45
   5  -6 -14    0.65    0.26
  -5   6  14    0.95    0.33
   4  -6 -14   27.83    1.45
  -4   6  14   30.98    1.49
   3  -6 -14   14.12    0.84
  -3   6  14   14.06    0.86
   2  -6 -14   16.50    0.95
  -2   6  14   17.75    0.99
   1  -6 -14   12.72    0.81
  -1   6  14   14.26    0.83
   0  -6 -14   10.94    0.73
   0   6  14   11.36    0.74
  -1  -6 -14    6.14    0.51
   1   6  14    5.22    0.49
  -2  -6 -14    4.85    0.47
   2   6  14    5.36    0.49
  -3  -6 -14    5.77    0.50
   3   6  14    5.30    0.49
  -4  -6 -14    7.33    0.62
   4   6  14    7.31    0.61
  -5  -6 -14    8.64    0.69
   5   6  14    9.03    0.68
  -6  -6 -14    0.85    0.34
   6   6  14    1.29    0.34
  -7  -6 -14    0.46    0.32
  -7  -6 -14   -0.01    0.33
   7   6  14   -0.13    0.26
  -6   7  14    1.55    0.39
  -5   7  14   23.19    1.27
   4  -7 -14    5.80    0.54
  -4   7  14    6.19    0.55
   3  -7 -14   11.10    0.79
  -3   7  14   12.45    0.82
   2  -7 -14    0.95    0.31
  -2   7  14    0.89    0.31
   1  -7 -14    5.44    0.52
  -1   7  14    7.18    0.59
   0  -7 -14    1.78    0.36
   0   7  14    1.72    0.34
  -1  -7 -14    4.72    0.47
   1   7  14    4.67    0.47
  -2  -7 -14    0.77    0.30
   2   7  14    0.39    0.29
  -3  -7 -14   19.83    1.11
   3   7  14   18.45    1.08
  -4  -7 -14    3.06    0.42
   4   7  14    2.83    0.41
  -5  -7 -14   19.54    1.16
   5   7  14   20.92    1.15
   2  -8 -14    5.01    0.54
  -2   8  14    5.11    0.55
   1  -8 -14    1.83    0.39
  -1   8  14    1.25    0.37
   0  -8 -14    0.79    0.35
   0   8  14    0.71    0.33
  -1  -8 -14    5.20    0.53
   1   8  14    4.68    0.52
  -2  -8 -14    0.81    0.35
   2   8  14    0.04    0.32
  -1  -7  15    0.34    0.11
   0  -7  15    0.49    0.15
   1  -7  15    1.09    0.19
   2  -7  15    4.83    0.39
   3  -7  15    2.48    0.29
   4  -7  15    4.17    0.38
  -1  -6  15    0.60    0.12
   0  -6  15    6.31    0.37
   1  -6  15   18.38    0.88
   2  -6  15    7.36    0.46
   3  -6  15    3.20    0.30
   4  -6  15   -0.06    0.19
   5  -6  15    0.72    0.23
   6  -6  15   10.01    0.66
  -1  -5  15    5.46    0.30
  -1  -5  15    6.23    0.32
   0  -5  15   14.39    0.69
   1  -5  15    4.85    0.33
   2  -5  15   15.81    0.79
   3  -5  15    2.47    0.26
   4  -5  15    0.99    0.21
   5  -5  15    0.80    0.23
   6  -5  15    5.48    0.48
   7  -5  15   10.39    0.68
   8  -5  15    3.12    0.39
  -9  -4  15    1.72    0.17
  -2  -4  15   20.40    0.93
  -2  -4  15   21.59    0.94
  -1  -4  15   40.14    1.71
  -1  -4  15   37.19    1.70
   0  -4  15    0.22    0.12
   1  -4  15   54.18    2.40
   2  -4  15    9.16    0.52
   3  -4  15    0.47    0.17
   4  -4  15    1.42    0.22
   5  -4  15    0.24    0.19
   6  -4  15    3.27    0.34
   7  -4  15    3.47    0.36
   8  -4  15    5.62    0.49
   9  -4  15    9.41    0.69
 -10  -3  15    0.57    0.17
  -9  -3  15    5.54    0.36
  -8  -3  15   12.00    0.59
  -7  -3  15    0.47    0.11
  -6  -3  15   17.59    0.81
  -6  -3  15   18.43    0.82
  -5  -3  15   19.89    0.88
  -5  -3  15   19.29    0.88
  -4  -3  15    1.43    0.13
  -4  -3  15    1.29    0.12
  -3  -3  15   50.05    2.22
  -3  -3  15   51.89    2.22
  -2  -3  15    4.88    0.27
  -2  -3  15    4.75    0.29
  -1  -3  15    3.40    0.22
  -1  -3  15    3.40    0.25
   0  -3  15   20.41    0.95
   1  -3  15    0.39    0.14
   2  -3  15   61.40    2.72
   3  -3  15   18.88    0.93
   4  -3  15    4.63    0.38
   5  -3  15   19.15    0.97
   6  -3  15    0.19    0.20
   7  -3  15   16.17    0.90
   8  -3  15    0.24    0.26
   9  -3  15    1.47    0.32
  10  -3  15   11.33    0.79
 -11  -2  15    4.11    0.35
 -10  -2  15   11.51    0.63
  -9  -2  15    1.48    0.21
  -8  -2  15   -0.01    0.14
  -7  -2  15    0.07    0.13
  -6  -2  15   10.39    0.53
  -5  -2  15    0.17    0.12
  -5  -2  15    0.21    0.10
  -4  -2  15    9.47    0.48
  -4  -2  15   10.11    0.50
  -3  -2  15    1.09    0.12
  -3  -2  15    0.91    0.14
  -2  -2  15   25.70    1.20
  -2  -2  15   27.61    1.21
  -1  -2  15    7.31    0.41
  -1  -2  15    6.75    0.37
   0  -2  15   20.90    0.93
   0  -2  15   18.51    0.93
   1  -2  15    4.04    0.31
   2  -2  15    5.24    0.37
   3  -2  15   19.84    0.97
   4  -2  15   41.47    1.90
   5  -2  15    9.80    0.59
   6  -2  15   32.29    1.54
   7  -2  15    0.10    0.22
   8  -2  15    0.06    0.25
   9  -2  15    0.22    0.27
  10  -2  15    5.95    0.55
 -11  -1  15    6.80    0.51
 -10  -1  15    0.51    0.21
  -9  -1  15    0.01    0.18
  -8  -1  15    1.64    0.22
  -7  -1  15    5.86    0.40
  -6  -1  15   -0.15    0.14
  -5  -1  15    4.42    0.32
  -4  -1  15    0.04    0.13
  -3  -1  15    0.62    0.12
  -3  -1  15    0.66    0.15
  -2  -1  15   24.28    1.08
  -2  -1  15   21.83    1.05
  -1  -1  15    0.24    0.14
  -1  -1  15    0.22    0.09
   0  -1  15   12.74    0.65
   1  -1  15    3.79    0.31
   2  -1  15   11.84    0.63
   3  -1  15    2.54    0.26
   4  -1  15    5.46    0.41
   5  -1  15   14.76    0.80
   6  -1  15    0.43    0.22
   7  -1  15    0.47    0.23
   8  -1  15    6.37    0.54
   9  -1  15   10.41    0.73
  10  -1  15    4.09    0.46
 -11   0  15   -0.22    0.23
 -10   0  15    0.01    0.21
  -9   0  15   -0.15    0.19
  -8   0  15    0.03    0.18
  -7   0  15   -0.07    0.17
  -6   0  15    0.18    0.17
  -5   0  15   -0.11    0.15
  -4   0  15    0.07    0.16
  -3   0  15    0.18    0.15
  -2   0  15   -0.02    0.14
  -1   0  15    0.09    0.14
   0   0  15   -0.05    0.14
  -1   0 -15    0.35    0.12
   1   0  15    0.50    0.16
  -2   0 -15    0.05    0.13
   2   0  15    0.01    0.15
  -3   0 -15    0.20    0.14
  -3   0 -15   -0.09    0.13
   3   0  15   -0.18    0.15
  -4   0 -15   -0.05    0.15
   4   0  15    0.22    0.19
  -5   0 -15    0.07    0.17
   5   0  15    0.00    0.17
  -6   0 -15   -0.04    0.19
   6   0  15    0.05    0.20
   7   0  15    0.27    0.24
   8   0  15   -0.24    0.25
   9   0  15   -0.22    0.25
  10   0  15    0.08    0.28
 -11   1  15    6.96    0.56
 -10   1  15    0.99    0.27
  -9   1  15    0.20    0.22
  -8   1  15    1.51    0.27
  -7   1  15    5.97    0.46
  -6   1  15    0.22    0.20
  -5   1  15    4.80    0.40
  -4   1  15    0.22    0.17
  -3   1  15    0.69    0.18
  -2   1  15   24.62    1.18
   1  -1 -15    0.09    0.13
  -1   1  15    0.21    0.17
   0  -1 -15   11.75    0.62
   0   1  15   12.70    0.67
  -1  -1 -15    4.06    0.32
   1   1  15    4.25    0.36
  -2  -1 -15   12.31    0.66
   2   1  15   12.80    0.70
  -3  -1 -15    3.33    0.30
  -3  -1 -15    2.81    0.28
   3   1  15    2.89    0.31
  -4  -1 -15    5.85    0.43
  -4  -1 -15    5.17    0.42
   4   1  15    5.91    0.45
  -5  -1 -15   12.97    0.75
   5   1  15   14.52    0.78
  -6  -1 -15    1.05    0.25
   6   1  15    1.01    0.27
  -7  -1 -15    0.49    0.23
   7   1  15    0.11    0.23
  -8  -1 -15    5.25    0.47
   8   1  15    6.25    0.55
   9   1  15   10.92    0.75
  10   1  15    3.80    0.45
 -11   2  15    3.89    0.43
 -10   2  15   11.63    0.75
  -9   2  15    1.24    0.29
  -8   2  15   -0.12    0.23
  -7   2  15    0.07    0.21
  -6   2  15    9.51    0.60
  -5   2  15    0.31    0.20
  -4   2  15    9.81    0.59
  -3   2  15    0.82    0.21
   2  -2 -15   26.20    1.25
  -2   2  15   27.66    1.29
   1  -2 -15    6.90    0.44
  -1   2  15    7.45    0.50
   0  -2 -15   20.59    1.00
   0   2  15   20.49    1.03
  -1  -2 -15    3.93    0.35
   1   2  15    4.37    0.36
  -2  -2 -15    6.37    0.44
   2   2  15    6.12    0.47
  -3  -2 -15   20.64    1.05
   3   2  15   21.52    1.07
  -4  -2 -15   41.44    1.94
  -4  -2 -15   40.83    1.94
   4   2  15   43.94    1.97
  -5  -2 -15   10.03    0.64
   5   2  15   10.81    0.67
  -6  -2 -15   30.67    1.55
   6   2  15   34.05    1.58
  -7  -2 -15   -0.09    0.25
   7   2  15   -0.02    0.23
  -8  -2 -15    0.05    0.27
   8   2  15    0.61    0.27
  -9  -2 -15   -0.06    0.27
   9   2  15    0.18    0.27
 -10  -2 -15    6.31    0.55
  10   2  15    5.23    0.52
 -10   3  15    0.36    0.31
  -9   3  15    5.89    0.52
  -8   3  15   13.26    0.82
  -7   3  15    0.69    0.26
  -6   3  15   19.77    1.04
  -5   3  15   23.03    1.17
  -4   3  15    1.51    0.28
   3  -3 -15   52.88    2.46
  -3   3  15   56.68    2.49
   2  -3 -15    4.91    0.40
  -2   3  15    5.21    0.44
   1  -3 -15    3.91    0.33
  -1   3  15    2.93    0.33
   0  -3 -15   20.90    1.05
   0   3  15   21.55    1.08
  -1  -3 -15    0.60    0.20
   1   3  15    0.34    0.22
  -2  -3 -15   62.50    2.85
   2   3  15   64.65    2.88
  -3  -3 -15   18.04    0.95
   3   3  15   18.29    0.97
  -4  -3 -15    4.76    0.43
  -4  -3 -15    4.45    0.41
   4   3  15    4.75    0.42
  -5  -3 -15   18.24    1.00
  -5  -3 -15   18.45    1.01
   5   3  15   21.04    1.05
  -6  -3 -15    0.52    0.27
   6   3  15    0.98    0.29
  -7  -3 -15   18.09    1.01
   7   3  15   17.84    1.01
  -8  -3 -15   -0.22    0.27
   8   3  15    0.40    0.28
  -9  -3 -15    0.71    0.33
   9   3  15    1.14    0.35
 -10  -3 -15   11.71    0.83
  10   3  15   11.26    0.82
  -9   4  15    1.76    0.37
  -8   4  15    3.69    0.44
  -7   4  15   29.16    1.46
  -6   4  15    1.15    0.30
  -5   4  15   31.56    1.55
  -4   4  15   26.85    1.34
   3  -4 -15    4.40    0.39
  -3   4  15    4.54    0.42
   2  -4 -15   22.05    1.12
  -2   4  15   23.26    1.16
   1  -4 -15   42.16    2.01
  -1   4  15   44.83    2.03
   0  -4 -15   -0.02    0.19
   0   4  15    0.15    0.22
  -1  -4 -15   56.10    2.60
   1   4  15   58.39    2.62
  -2  -4 -15   10.09    0.64
   2   4  15    9.73    0.67
  -3  -4 -15    0.83    0.26
   3   4  15    0.75    0.26
  -4  -4 -15    1.26    0.28
   4   4  15    1.37    0.31
  -5  -4 -15   -0.13    0.25
  -5  -4 -15    1.04    0.30
   5   4  15    0.16    0.25
  -6  -4 -15    3.37    0.41
  -6  -4 -15    4.44    0.43
   6   4  15    4.38    0.43
  -7  -4 -15    3.58    0.45
   7   4  15    4.30    0.46
  -8  -4 -15    6.27    0.56
   8   4  15    5.24    0.52
  -9  -4 -15   10.37    0.80
   9   4  15   11.14    0.79
  -8   5  15   23.02    1.26
  -7   5  15    2.32    0.40
  -6   5  15   31.54    1.58
  -5   5  15    1.21    0.31
  -4   5  15    0.31    0.28
   3  -5 -15   17.20    0.94
  -3   5  15   17.17    0.98
   2  -5 -15    5.55    0.49
  -2   5  15    5.56    0.49
   1  -5 -15    5.93    0.51
  -1   5  15    6.22    0.54
   0  -5 -15   14.33    0.83
   0   5  15   14.45    0.85
  -1  -5 -15    4.76    0.43
   1   5  15    6.03    0.53
  -2  -5 -15   16.17    0.93
   2   5  15   16.91    0.95
  -3  -5 -15    2.34    0.35
   3   5  15    2.89    0.39
  -4  -5 -15    1.59    0.33
   4   5  15    1.38    0.33
  -5  -5 -15    0.62    0.30
   5   5  15    0.74    0.29
  -6  -5 -15    5.83    0.55
  -6  -5 -15    6.55    0.58
   6   5  15    6.63    0.55
  -7  -5 -15   11.35    0.79
  -7  -5 -15   11.17    0.80
   7   5  15   10.82    0.78
  -8  -5 -15    4.41    0.50
  -8  -5 -15    4.31    0.53
   8   5  15    4.33    0.50
  -7   6  15    7.25    0.63
  -6   6  15   -0.17    0.30
  -5   6  15    3.38    0.45
  -4   6  15    0.02    0.31
   3  -6 -15   -0.05    0.25
  -3   6  15    0.07    0.28
   2  -6 -15    0.05    0.25
  -2   6  15    0.03    0.29
   1  -6 -15    0.29    0.27
  -1   6  15    0.79    0.29
   0  -6 -15    6.84    0.59
   0   6  15    6.98    0.59
  -1  -6 -15   18.73    1.05
   1   6  15   19.45    1.07
  -2  -6 -15    7.74    0.63
   2   6  15    7.43    0.65
  -3  -6 -15    2.85    0.42
   3   6  15    3.24    0.41
  -4  -6 -15    0.47    0.30
   4   6  15    0.50    0.30
  -5  -6 -15   -0.07    0.30
   5   6  15    0.72    0.31
  -6  -6 -15    9.86    0.77
   6   6  15   10.60    0.75
  -5   7  15   -0.07    0.32
  -4   7  15    0.40    0.31
   3  -7 -15    0.55    0.31
  -3   7  15    0.36    0.32
   2  -7 -15    6.02    0.57
  -2   7  15    7.79    0.64
   1  -7 -15   -0.16    0.28
  -1   7  15    0.47    0.32
   0  -7 -15    0.15    0.29
   0   7  15    0.68    0.32
  -1  -7 -15    1.27    0.34
   1   7  15    1.52    0.34
  -2  -7 -15    5.80    0.53
   2   7  15    5.48    0.52
  -3  -7 -15    2.25    0.40
   3   7  15    3.48    0.43
  -4  -7 -15    4.65    0.52
   4   7  15    3.88    0.48
   0  -7  16    0.48    0.15
   1  -7  16    0.52    0.17
   2  -7  16    4.41    0.37
   0  -6  16    1.12    0.16
   1  -6  16    0.62    0.16
   2  -6  16    4.65    0.37
   3  -6  16    8.64    0.54
   4  -6  16    0.26    0.21
   5  -6  16   11.55    0.70
  -1  -5  16    4.74    0.29
   0  -5  16   10.49    0.53
   1  -5  16    0.18    0.14
   2  -5  16    0.69    0.18
   3  -5  16    4.22    0.37
   4  -5  16    5.07    0.42
   5  -5  16    0.20    0.21
   6  -5  16    1.40    0.28
   7  -5  16    5.02    0.46
  -2  -4  16    0.96    0.10
  -2  -4  16    0.97    0.12
  -1  -4  16    4.81    0.30
   0  -4  16   15.63    0.75
   1  -4  16    0.07    0.14
   2  -4  16    4.39    0.35
   3  -4  16    0.23    0.18
   4  -4  16    2.79    0.30
   5  -4  16    1.39    0.25
   6  -4  16    1.46    0.27
   7  -4  16    1.77    0.30
   8  -4  16    0.09    0.27
  -9  -3  16    0.08    0.14
  -8  -3  16   -0.01    0.12
  -7  -3  16    3.95    0.26
  -6  -3  16   11.51    0.55
  -5  -3  16    3.16    0.22
  -5  -3  16    3.30    0.21
  -4  -3  16   13.69    0.63
  -4  -3  16   13.29    0.62
  -3  -3  16   14.38    0.67
  -3  -3  16   14.32    0.66
  -2  -3  16    0.06    0.08
  -2  -3  16    0.06    0.11
  -1  -3  16    0.80    0.15
   0  -3  16    0.35    0.14
   1  -3  16    1.02    0.18
   2  -3  16    4.46    0.35
   3  -3  16    0.59    0.19
   4  -3  16    2.90    0.30
   5  -3  16    0.46    0.21
   6  -3  16    9.36    0.61
   7  -3  16    0.22    0.24
   8  -3  16    3.02    0.39
   9  -3  16    7.53    0.63
 -10  -2  16    0.36    0.19
  -9  -2  16    1.30    0.20
  -8  -2  16    8.28    0.47
  -7  -2  16    1.94    0.20
  -6  -2  16   -0.03    0.13
  -5  -2  16   24.20    1.11
  -4  -2  16   17.34    0.82
  -3  -2  16    8.89    0.47
  -2  -2  16   19.59    0.92
  -1  -2  16   -0.02    0.13
   0  -2  16    3.71    0.31
   1  -2  16    6.62    0.42
   2  -2  16    4.25    0.34
   3  -2  16    4.99    0.40
   4  -2  16    0.00    0.18
   5  -2  16    6.13    0.47
   6  -2  16    0.66    0.24
   7  -2  16   13.51    0.81
   8  -2  16    4.77    0.47
   9  -2  16   -0.17    0.27
 -10  -1  16    0.51    0.22
  -9  -1  16    2.87    0.29
  -8  -1  16    6.19    0.43
  -7  -1  16    8.17    0.49
  -6  -1  16   16.11    0.80
  -5  -1  16    2.07    0.22
  -4  -1  16    8.32    0.48
  -3  -1  16    9.56    0.52
  -2  -1  16    2.15    0.22
  -1  -1  16   24.08    1.13
   0  -1  16    3.10    0.27
   1  -1  16   22.84    1.09
   2  -1  16   28.33    1.33
   3  -1  16    4.17    0.37
   4  -1  16   27.01    1.30
   5  -1  16    7.35    0.53
   6  -1  16    0.38    0.23
   7  -1  16   13.52    0.80
   8  -1  16    0.98    0.30
   9  -1  16    9.73    0.71
  10  -1  16    2.08    0.39
 -10   0  16    5.71    0.49
  -9   0  16   22.13    1.11
  -8   0  16   13.34    0.73
  -7   0  16    8.07    0.52
  -6   0  16   10.93    0.62
  -5   0  16    2.30    0.26
  -4   0  16    2.98    0.28
  -3   0  16    1.71    0.22
  -2   0  16    4.47    0.36
  -1   0  16    0.15    0.16
   0   0  16   69.32    3.07
   1   0  16   24.91    1.19
   2   0  16   62.20    2.79
   3   0  16   28.37    1.35
   4   0  16   14.89    0.81
   5   0  16    0.15    0.22
   6   0  16   56.81    2.60
   7   0  16    3.81    0.39
   8   0  16   38.87    1.88
   9   0  16    2.86    0.41
  10   0  16    2.94    0.43
 -10   1  16    0.69    0.27
  -9   1  16    3.30    0.36
  -8   1  16    6.00    0.49
  -7   1  16    9.08    0.58
  -6   1  16   14.69    0.79
  -5   1  16    2.48    0.28
  -4   1  16    8.15    0.52
  -3   1  16   10.06    0.58
  -2   1  16    1.92    0.24
  -1   1  16   23.33    1.13
   0   1  16    3.27    0.31
   1   1  16   21.63    1.07
   2   1  16   32.19    1.52
   3   1  16    3.38    0.33
   4   1  16   27.77    1.36
   5   1  16    7.37    0.55
   6   1  16    0.49    0.25
   7   1  16   13.50    0.82
   8   1  16    0.98    0.31
   9   1  16   11.59    0.80
  10   1  16    1.93    0.39
 -10   2  16    0.97    0.31
  -9   2  16    1.09    0.29
  -8   2  16    9.21    0.63
  -7   2  16    1.77    0.29
  -6   2  16   -0.08    0.21
  -5   2  16   23.96    1.19
  -4   2  16   17.92    0.94
  -3   2  16    9.18    0.58
  -2   2  16   20.71    1.04
  -1   2  16    0.00    0.20
   0   2  16    3.83    0.36
  -1  -2 -16    6.54    0.46
   1   2  16    7.83    0.52
  -2  -2 -16    4.27    0.35
   2   2  16    4.41    0.40
  -3  -2 -16    5.41    0.43
   3   2  16    4.94    0.45
  -4  -2 -16    0.17    0.21
  -4  -2 -16    0.14    0.20
   4   2  16    0.26    0.22
  -5  -2 -16    6.31    0.50
  -5  -2 -16    5.48    0.48
   5   2  16    6.43    0.52
  -6  -2 -16    0.76    0.25
   6   2  16    0.82    0.26
  -7  -2 -16   14.49    0.88
   7   2  16   14.90    0.88
   8   2  16    5.30    0.51
   9   2  16    0.52    0.31
  -9   3  16   -0.01    0.28
  -8   3  16    0.09    0.28
  -7   3  16    3.73    0.40
  -6   3  16   12.53    0.77
  -5   3  16    3.39    0.38
  -4   3  16   16.20    0.90
  -3   3  16   15.21    0.85
  -2   3  16    0.15    0.21
  -1   3  16    1.33    0.26
   0  -3 -16    0.13    0.18
   0   3  16    0.08    0.22
  -1  -3 -16    0.92    0.23
   1   3  16    1.17    0.26
  -2  -3 -16    4.75    0.42
   2   3  16    4.59    0.42
  -3  -3 -16    1.00    0.25
   3   3  16    0.65    0.25
  -4  -3 -16    3.19    0.35
   4   3  16    3.04    0.38
  -5  -3 -16    0.41    0.26
  -5  -3 -16    0.75    0.25
   5   3  16    0.59    0.26
  -6  -3 -16    9.20    0.65
  -6  -3 -16    9.27    0.66
   6   3  16   10.09    0.69
  -7  -3 -16   -0.17    0.26
   7   3  16   -0.10    0.28
  -8  -3 -16    3.45    0.43
   8   3  16    3.42    0.44
   9   3  16    7.38    0.63
  -9   4  16    4.92    0.51
  -8   4  16    0.50    0.31
  -7   4  16    2.06    0.36
  -6   4  16    2.76    0.39
  -5   4  16    0.95    0.30
  -4   4  16    0.25    0.26
  -3   4  16    3.05    0.38
  -2   4  16    0.58    0.26
   1  -4 -16    4.58    0.40
  -1   4  16    4.60    0.42
   0  -4 -16   15.83    0.87
   0   4  16   16.43    0.91
  -1  -4 -16    0.11    0.21
   1   4  16   -0.05    0.24
  -2  -4 -16    4.04    0.40
   2   4  16    4.90    0.46
  -3  -4 -16    0.35    0.23
   3   4  16    0.31    0.27
  -4  -4 -16    2.07    0.34
   4   4  16    3.06    0.38
  -5  -4 -16    1.27    0.31
   5   4  16    1.48    0.31
  -6  -4 -16    1.85    0.36
  -6  -4 -16    1.71    0.34
   6   4  16    2.05    0.38
  -7  -4 -16    1.75    0.36
  -7  -4 -16    2.64    0.39
   7   4  16    2.74    0.40
  -8  -4 -16    0.04    0.31
   8   4  16    0.13    0.31
  -7   5  16    1.33    0.38
  -6   5  16   16.58    0.99
  -5   5  16    0.43    0.31
  -4   5  16   10.23    0.73
  -3   5  16   14.44    0.88
  -2   5  16    2.56    0.38
   1  -5 -16    5.66    0.48
  -1   5  16    5.66    0.50
   0  -5 -16   10.13    0.69
   0   5  16   11.66    0.73
  -1  -5 -16    0.33    0.25
   1   5  16    0.11    0.28
  -2  -5 -16    0.81    0.29
   2   5  16    0.72    0.31
  -3  -5 -16    5.52    0.49
   3   5  16    4.82    0.48
  -4  -5 -16    5.27    0.48
   4   5  16    4.98    0.48
  -5  -5 -16    0.27    0.29
   5   5  16    0.13    0.27
  -6  -5 -16    1.23    0.35
   6   5  16    1.96    0.38
  -7  -5 -16    6.41    0.58
  -7  -5 -16    5.51    0.54
   7   5  16    6.27    0.57
  -6   6  16    0.02    0.34
  -5   6  16   16.53    1.01
  -4   6  16    8.33    0.71
  -3   6  16   12.01    0.82
  -2   6  16    8.28    0.68
   1  -6 -16   -0.31    0.25
  -1   6  16    0.07    0.29
   0  -6 -16    1.01    0.30
   0   6  16    1.25    0.33
  -1  -6 -16    0.51    0.27
   1   6  16    0.67    0.31
  -2  -6 -16    4.07    0.44
   2   6  16    5.12    0.49
  -3  -6 -16    9.60    0.72
   3   6  16   10.52    0.75
  -4  -6 -16    0.23    0.31
   4   6  16    0.75    0.34
  -5  -6 -16   12.73    0.87
   5   6  16   13.36    0.87
  -3   7  16    9.42    0.78
  -2   7  16    6.30    0.59
   1  -7 -16    3.05    0.46
  -1   7  16    2.98    0.43
   0  -7 -16    0.76    0.32
   0   7  16    0.90    0.33
  -1  -7 -16    0.33    0.31
   1   7  16    0.22    0.32
  -2  -7 -16    5.13    0.52
   2   7  16    5.00    0.53
   0  -6  17    4.81    0.32
   1  -6  17    0.21    0.16
   2  -6  17    7.45    0.48
   3  -6  17    2.73    0.29
   4  -6  17    1.49    0.26
  -1  -5  17   18.09    0.83
   0  -5  17    0.32    0.14
   1  -5  17    7.77    0.46
   2  -5  17    4.26    0.37
   3  -5  17   11.66    0.66
   4  -5  17    6.09    0.47
   5  -5  17   -0.04    0.21
   6  -5  17    6.43    0.53
  -2  -4  17   15.31    0.71
  -1  -4  17    3.60    0.27
   0  -4  17    7.02    0.41
   1  -4  17    3.11    0.27
   2  -4  17   16.50    0.83
   3  -4  17    2.93    0.30
   4  -4  17   11.24    0.67
   5  -4  17    4.03    0.38
   6  -4  17    0.28    0.24
   7  -4  17   24.09    1.25
  -8  -3  17    4.15    0.29
  -7  -3  17    7.46    0.39
  -6  -3  17    9.85    0.48
  -5  -3  17    3.43    0.24
  -4  -3  17   31.50    1.40
  -3  -3  17    0.41    0.12
  -2  -3  17   21.45    0.99
  -1  -3  17   13.76    0.68
   0  -3  17    0.80    0.17
   1  -3  17    2.37    0.25
   2  -3  17    0.84    0.19
   3  -3  17    8.32    0.52
   4  -3  17   16.47    0.87
   5  -3  17    6.19    0.49
   6  -3  17   12.05    0.73
   7  -3  17    0.00    0.24
   8  -3  17    1.75    0.34
  -9  -2  17    0.02    0.16
  -8  -2  17    0.10    0.16
  -7  -2  17    0.50    0.16
  -6  -2  17    0.55    0.15
  -5  -2  17    9.52    0.51
  -4  -2  17    5.75    0.36
  -3  -2  17   24.47    1.13
  -2  -2  17    0.38    0.15
  -1  -2  17   15.43    0.77
   0  -2  17    3.81    0.32
   1  -2  17    5.07    0.38
   2  -2  17   17.11    0.87
   3  -2  17   43.75    2.00
   4  -2  17    1.86    0.27
   5  -2  17   17.61    0.93
   6  -2  17    0.38    0.23
   7  -2  17    0.00    0.24
   8  -2  17    0.83    0.30
   9  -2  17    3.54    0.45
  -9  -1  17    0.38    0.21
  -8  -1  17    0.27    0.19
  -7  -1  17    1.17    0.21
  -6  -1  17    0.17    0.17
  -5  -1  17    1.14    0.20
  -4  -1  17    2.83    0.27
  -3  -1  17    5.80    0.39
  -2  -1  17   14.29    0.73
  -1  -1  17    1.11    0.19
   0  -1  17    0.25    0.17
   1  -1  17    5.09    0.39
   2  -1  17   10.48    0.60
   3  -1  17    0.91    0.22
   4  -1  17   31.81    1.51
   5  -1  17    1.04    0.24
   6  -1  17    4.31    0.41
   7  -1  17    0.07    0.25
   8  -1  17    1.50    0.33
   9  -1  17    1.29    0.35
  -9   0  17    0.20    0.22
  -8   0  17   -0.21    0.20
  -7   0  17   -0.09    0.19
  -6   0  17   -0.12    0.18
  -5   0  17   -0.14    0.18
  -4   0  17   -0.25    0.17
  -3   0  17    0.14    0.17
  -2   0  17   -0.10    0.17
  -1   0  17    0.16    0.17
   0   0  17    0.49    0.19
   1   0  17    0.07    0.17
   2   0  17    0.38    0.19
   3   0  17    0.06    0.19
   4   0  17    0.18    0.20
   5   0  17    0.14    0.22
   6   0  17   -0.01    0.23
   7   0  17   -0.07    0.24
   8   0  17    0.11    0.28
   9   0  17    0.05    0.29
  -9   1  17    0.09    0.25
  -8   1  17    0.67    0.26
  -7   1  17    0.96    0.26
  -6   1  17    0.12    0.22
  -5   1  17    1.58    0.26
  -4   1  17    2.84    0.31
  -3   1  17    5.18    0.42
  -2   1  17   14.28    0.77
  -1   1  17    1.50    0.24
   0   1  17    0.43    0.19
   1   1  17    5.34    0.44
   2   1  17   12.27    0.71
   3   1  17    1.03    0.24
   4   1  17   33.15    1.60
   5   1  17    0.76    0.26
   6   1  17    3.86    0.41
   7   1  17   -0.20    0.24
   8   1  17    1.12    0.32
   9   1  17    0.75    0.31
  -9   2  17    0.13    0.27
  -8   2  17    0.15    0.25
  -7   2  17    0.46    0.25
  -6   2  17    0.26    0.24
  -5   2  17    9.95    0.63
  -4   2  17    6.12    0.49
  -3   2  17   24.54    1.21
  -2   2  17    0.63    0.22
  -1   2  17   16.87    0.90
   0   2  17    4.10    0.38
   1   2  17    5.26    0.46
   2   2  17   18.79    0.99
   3   2  17   44.79    2.09
   4   2  17    1.98    0.33
   5   2  17   20.26    1.09
   6   2  17    0.36    0.28
   7   2  17    0.11    0.27
   8   2  17    1.65    0.35
  -8   3  17    4.69    0.48
  -7   3  17    7.48    0.62
  -6   3  17   11.53    0.74
  -5   3  17    4.15    0.42
  -4   3  17   33.23    1.61
  -3   3  17    0.49    0.25
  -2   3  17   23.16    1.18
  -1   3  17   16.56    0.92
   0   3  17    0.74    0.26
   1   3  17    2.10    0.32
   2   3  17    1.03    0.28
   3   3  17    8.38    0.61
   4   3  17   17.82    0.99
   5   3  17    7.78    0.62
   6   3  17   14.67    0.90
   7   3  17    0.43    0.31
   8   3  17    0.47    0.34
  -8   4  17   16.25    0.98
  -7   4  17    0.26    0.29
  -6   4  17   20.92    1.14
  -5   4  17    7.43    0.63
  -4   4  17    0.08    0.26
  -3   4  17    9.08    0.67
  -2   4  17   17.62    0.98
  -1   4  17    3.58    0.39
   0   4  17    7.71    0.61
   1   4  17    2.53    0.36
   2   4  17   17.78    1.00
   3   4  17    2.74    0.39
   4   4  17   11.29    0.75
   5   4  17    4.04    0.45
   6   4  17    0.89    0.31
   7   4  17   26.22    1.39
  -6   5  17    3.59    0.47
  -5   5  17    7.93    0.67
  -4   5  17    1.19    0.34
  -3   5  17    0.57    0.31
  -2   5  17    0.74    0.31
  -1   5  17   18.50    1.04
   0   5  17    0.43    0.28
   1   5  17    8.50    0.67
   2   5  17    4.40    0.47
  -3  -5 -17   13.54    0.84
   3   5  17   13.05    0.86
  -4  -5 -17    6.28    0.56
   4   5  17    5.69    0.54
  -5  -5 -17    0.39    0.30
   5   5  17   -0.04    0.29
  -6  -5 -17    5.55    0.59
   6   5  17    7.71    0.62
  -4   6  17    1.12    0.36
  -3   6  17    4.93    0.53
  -2   6  17    2.96    0.45
  -1   6  17    7.12    0.61
   0   6  17    7.13    0.61
   1   6  17    0.10    0.30
   2   6  17    8.75    0.72
  -3  -6 -17    2.77    0.43
   3   6  17    3.03    0.41
  -4  -6 -17    1.20    0.35
   4   6  17    1.57    0.39
   0  -6  18    0.53    0.14
   1  -6  18   -0.19    0.15
  -1  -5  18   -0.10    0.12
   0  -5  18    1.53    0.19
   1  -5  18    0.14    0.16
   2  -5  18    2.46    0.27
   3  -5  18    0.85    0.23
   4  -5  18    5.38    0.44
  -2  -4  18    1.11    0.14
  -1  -4  18    1.42    0.17
   0  -4  18    0.48    0.16
   1  -4  18    0.46    0.17
   2  -4  18    0.66    0.20
   3  -4  18    4.09    0.36
   4  -4  18    4.54    0.40
   5  -4  18    0.47    0.24
   6  -4  18    0.06    0.25
  -7  -3  18    0.37    0.12
  -6  -3  18    5.14    0.30
  -5  -3  18    1.44    0.15
  -4  -3  18   13.19    0.63
  -3  -3  18    0.30    0.13
  -2  -3  18    1.55    0.19
  -1  -3  18    3.47    0.30
   0  -3  18    4.61    0.35
   1  -3  18    6.86    0.44
   2  -3  18    2.01    0.25
   3  -3  18    2.43    0.29
   4  -3  18    1.19    0.26
   5  -3  18   13.14    0.76
   6  -3  18    2.00    0.32
   7  -3  18    4.11    0.44
  -8  -2  18    0.52    0.17
  -7  -2  18    0.93    0.18
  -6  -2  18   14.29    0.71
  -5  -2  18   -0.11    0.14
  -4  -2  18    2.49    0.23
  -3  -2  18    5.65    0.38
  -2  -2  18    3.11    0.27
  -1  -2  18    0.80    0.19
   0  -2  18    0.64    0.18
   1  -2  18    4.64    0.38
   2  -2  18    0.26    0.18
   3  -2  18    0.98    0.23
   4  -2  18   27.52    1.34
   5  -2  18    0.33    0.23
   6  -2  18    1.91    0.32
   7  -2  18    5.34    0.49
   8  -2  18    0.23    0.28
  -8  -1  18    6.37    0.46
  -7  -1  18    2.52    0.27
  -6  -1  18   12.90    0.69
  -5  -1  18   15.73    0.80
  -4  -1  18    1.74    0.24
  -3  -1  18    7.85    0.48
  -2  -1  18   19.17    0.94
  -1  -1  18    3.62    0.31
   0  -1  18   27.72    1.31
   1  -1  18   25.79    1.24
   2  -1  18    8.13    0.53
   3  -1  18    7.44    0.52
   4  -1  18    0.30    0.21
   5  -1  18    1.27    0.28
   6  -1  18   18.91    1.03
   7  -1  18    0.55    0.28
   8  -1  18    6.55    0.57
  -9   0  18    5.86    0.49
  -8   0  18    1.12    0.25
  -7   0  18    5.86    0.46
  -6   0  18   14.19    0.77
  -5   0  18   22.02    1.09
  -4   0  18    7.09    0.49
  -3   0  18   18.67    0.94
  -2   0  18    0.51    0.20
  -1   0  18   61.87    2.77
   0   0  18   35.18    1.64
   1   0  18   29.60    1.41
   2   0  18   21.20    1.07
   3   0  18    4.01    0.37
   4   0  18   14.91    0.84
   5   0  18    9.47    0.64
   6   0  18    6.20    0.52
   7   0  18    8.95    0.67
   8   0  18    0.62    0.32
  -8   1  18    6.99    0.55
  -7   1  18    2.73    0.33
  -6   1  18   13.43    0.77
  -5   1  18   16.62    0.89
  -4   1  18    1.40    0.26
  -3   1  18    8.28    0.55
  -2   1  18   17.40    0.91
  -1   1  18    3.57    0.35
   0   1  18   26.70    1.30
   1   1  18   24.18    1.20
   2   1  18    7.41    0.53
   3   1  18    8.66    0.60
   4   1  18    0.43    0.25
   5   1  18    1.53    0.30
   6   1  18   20.52    1.11
   7   1  18   -0.08    0.27
   8   1  18    5.72    0.53
  -8   2  18    0.38    0.27
  -7   2  18    0.65    0.28
  -6   2  18   14.18    0.83
  -5   2  18   -0.05    0.23
  -4   2  18    2.16    0.31
  -3   2  18    5.19    0.46
  -2   2  18    2.80    0.33
  -1   2  18    0.89    0.25
   0   2  18    0.97    0.26
   1   2  18    4.38    0.40
   2   2  18    0.15    0.23
   3   2  18    0.65    0.26
   4   2  18   31.18    1.54
   5   2  18   -0.04    0.27
   6   2  18    2.05    0.36
   7   2  18    6.11    0.57
   8   2  18   -0.23    0.29
  -7   3  18    0.15    0.27
  -6   3  18    5.88    0.51
  -5   3  18    1.62    0.33
  -4   3  18   14.78    0.87
  -3   3  18    0.36    0.25
  -2   3  18    1.31    0.29
  -1   3  18    3.97    0.40
   0   3  18    5.44    0.49
   1   3  18    7.13    0.58
   2   3  18    2.20    0.34
   3   3  18    2.28    0.34
   4   3  18    1.26    0.31
   5   3  18   13.30    0.84
   6   3  18    2.41    0.38
   7   3  18    4.68    0.52
  -6   4  18    0.41    0.31
  -5   4  18   -0.02    0.28
  -4   4  18   -0.14    0.28
  -3   4  18    0.50    0.29
  -2   4  18    0.98    0.30
  -1   4  18    1.24    0.30
   0   4  18    0.48    0.30
   1   4  18    0.42    0.29
   2   4  18    0.20    0.28
   3   4  18    4.21    0.46
   4   4  18    3.91    0.44
   5   4  18    0.43    0.29
   6   4  18    0.19    0.32
  -5   5  18    0.15    0.30
  -4   5  18   -0.12    0.31
  -3   5  18    0.08    0.30
  -2   5  18    1.37    0.36
  -1   5  18    0.48    0.30
   0   5  18    2.06    0.38
   1   5  18   -0.15    0.29
   2   5  18    3.02    0.42
   3   5  18    1.29    0.35
   4   5  18    6.68    0.61
  -2   6  18    1.78    0.39
  -1   6  18    1.07    0.36
   0   6  18   -0.10    0.30
   1   6  18   -0.13    0.31
  -1  -5  19    2.55    0.23
   0  -5  19    9.65    0.52
   1  -5  19    2.76    0.27
   2  -5  19    9.81    0.59
  -2  -4  19    2.23    0.19
  -1  -4  19    5.11    0.34
   0  -4  19   11.95    0.63
   1  -4  19   13.96    0.73
   2  -4  19    2.87    0.30
   3  -4  19    9.33    0.60
   4  -4  19    4.19    0.39
  -6  -3  19    2.25    0.18
  -5  -3  19    7.34    0.40
  -4  -3  19    0.30    0.13
  -3  -3  19    7.99    0.44
  -2  -3  19    0.06    0.15
  -1  -3  19    9.62    0.53
   0  -3  19    3.83    0.32
   1  -3  19    0.34    0.19
   2  -3  19    8.08    0.53
   3  -3  19    8.25    0.55
   4  -3  19    7.77    0.56
   5  -3  19    6.44    0.54
   6  -3  19    0.06    0.26
  -7  -2  19    0.47    0.17
  -6  -2  19    0.94    0.18
  -5  -2  19    2.77    0.25
  -4  -2  19   26.16    1.21
  -3  -2  19    0.87    0.19
  -2  -2  19   17.06    0.85
  -1  -2  19    7.61    0.47
   0  -2  19    0.11    0.17
   1  -2  19    3.37    0.32
   2  -2  19   13.36    0.74
   3  -2  19    0.11    0.20
   4  -2  19   12.56    0.75
   5  -2  19    1.85    0.30
   6  -2  19    7.19    0.59
  -7  -1  19    0.55    0.21
  -6  -1  19    5.65    0.42
  -5  -1  19    6.73    0.46
  -4  -1  19    3.17    0.30
  -3  -1  19   24.02    1.15
  -2  -1  19    1.90    0.25
  -1  -1  19    5.71    0.43
   0  -1  19    7.53    0.50
   1  -1  19   10.70    0.63
   2  -1  19    0.30    0.21
   3  -1  19   14.11    0.79
   4  -1  19   -0.15    0.21
   5  -1  19    0.93    0.27
   6  -1  19    3.00    0.39
   7  -1  19    1.39    0.33
  -8   0  19   -0.20    0.21
  -7   0  19    0.02    0.21
  -6   0  19   -0.21    0.19
  -5   0  19   -0.13    0.20
  -4   0  19    0.11    0.21
  -3   0  19    0.17    0.19
  -2   0  19    0.05    0.19
  -1   0  19    0.39    0.21
   0   0  19    0.17    0.21
   1   0  19    0.12    0.21
   2   0  19   -0.17    0.19
   3   0  19   -0.44    0.19
   4   0  19    0.05    0.24
   5   0  19    0.00    0.23
   6   0  19    0.09    0.26
   7   0  19   -0.28    0.27
  -7   1  19    0.76    0.27
  -6   1  19    5.62    0.50
  -5   1  19    6.89    0.54
  -4   1  19    3.08    0.35
  -3   1  19   24.05    1.20
  -2   1  19    1.92    0.29
  -1   1  19    5.49    0.47
   0   1  19    7.89    0.56
   1   1  19   11.17    0.69
   2   1  19    0.25    0.23
   3   1  19   15.58    0.88
   4   1  19    0.15    0.24
   5   1  19    0.99    0.30
   6   1  19    2.38    0.38
   7   1  19    1.52    0.37
  -7   2  19    0.66    0.28
  -6   2  19    0.80    0.29
  -5   2  19    2.79    0.36
  -4   2  19   27.04    1.36
  -3   2  19    1.03    0.27
  -2   2  19   16.97    0.92
  -1   2  19    7.42    0.56
   0   2  19    0.03    0.24
   1   2  19    3.92    0.41
   2   2  19   14.29    0.84
   3   2  19    0.02    0.25
   4   2  19   12.60    0.80
   5   2  19    2.12    0.36
   6   2  19    8.44    0.69
  -6   3  19    2.31    0.36
  -5   3  19    8.50    0.67
  -4   3  19    0.15    0.28
  -3   3  19    8.86    0.65
  -2   3  19   -0.10    0.25
  -1   3  19   10.31    0.70
   0   3  19    3.82    0.42
   1   3  19    0.13    0.27
   2   3  19    7.69    0.62
   3   3  19    7.95    0.64
   4   3  19    8.92    0.69
   5   3  19    7.21    0.65
   6   3  19    0.11    0.31
  -5   4  19    0.13    0.31
  -4   4  19    2.22    0.38
  -3   4  19    0.09    0.31
  -2   4  19    2.91    0.40
  -1   4  19    6.67    0.58
   0   4  19   13.99    0.87
   1   4  19   15.87    0.95
   2   4  19    3.41    0.44
   3   4  19   10.72    0.78
   4   4  19    4.49    0.49
  -3   5  19    0.40    0.33
  -2   5  19    3.84    0.48
  -1   5  19    3.13    0.43
   0   5  19   10.96    0.79
   1   5  19    4.05    0.50
   2   5  19   10.31    0.78
  -2  -4  20    0.60    0.15
  -1  -4  20    1.18    0.18
   0  -4  20    3.18    0.28
   1  -4  20    1.01    0.21
   2  -4  20    0.97    0.24
  -5  -3  20    0.23    0.13
  -4  -3  20    3.40    0.27
  -3  -3  20    0.03    0.14
  -2  -3  20    2.84    0.25
  -1  -3  20    0.26    0.17
   0  -3  20    8.94    0.53
   1  -3  20    0.15    0.19
   2  -3  20    2.13    0.29
   3  -3  20    0.10    0.22
   4  -3  20    7.67    0.57
  -6  -2  20    2.71    0.26
  -5  -2  20    1.12    0.20
  -4  -2  20    1.59    0.22
  -3  -2  20    7.74    0.48
  -2  -2  20    1.84    0.24
  -1  -2  20    0.72    0.21
   0  -2  20    5.19    0.42
   1  -2  20    3.61    0.34
   2  -2  20    2.90    0.32
   3  -2  20   13.87    0.79
   4  -2  20    1.87    0.30
   5  -2  20    2.22    0.34
  -6  -1  20    3.39    0.31
  -5  -1  20    0.11    0.18
  -4  -1  20   14.89    0.79
  -3  -1  20    9.25    0.57
  -2  -1  20    2.86    0.31
  -1  -1  20   13.48    0.75
   0  -1  20    2.92    0.32
   1  -1  20   10.60    0.65
   2  -1  20    9.49    0.62
   3  -1  20    0.06    0.22
   4  -1  20    3.30    0.37
   5  -1  20    2.78    0.37
  -6   0  20   14.10    0.79
  -5   0  20   10.17    0.64
  -4   0  20    0.28    0.22
  -3   0  20    1.81    0.28
  -2   0  20   20.90    1.06
  -1   0  20   11.16    0.67
   0   0  20   12.75    0.74
   1   0  20   13.01    0.75
   2   0  20    5.90    0.51
   3   0  20    1.24    0.29
   4   0  20    2.15    0.33
   5   0  20    0.42    0.28
   6   0  20    3.82    0.44
  -6   1  20    3.28    0.38
  -5   1  20    0.47    0.25
  -4   1  20   15.04    0.85
  -3   1  20    9.46    0.63
  -2   1  20    2.47    0.33
  -1   1  20   13.14    0.77
   0   1  20    3.12    0.36
   1   1  20   11.80    0.73
   2   1  20    9.24    0.64
   3   1  20   -0.33    0.23
   4   1  20    2.98    0.39
   5   1  20    2.55    0.39
  -6   2  20    2.70    0.37
  -5   2  20    0.80    0.29
  -4   2  20    1.63    0.32
  -3   2  20    7.53    0.58
  -2   2  20    1.67    0.31
  -1   2  20    0.76    0.28
   0   2  20    6.34    0.56
   1   2  20    4.44    0.45
   2   2  20    3.10    0.39
   3   2  20   15.20    0.91
   4   2  20    2.07    0.36
   5   2  20    3.15    0.41
  -5   3  20    0.11    0.28
  -4   3  20    3.30    0.42
  -3   3  20    0.32    0.29
  -2   3  20    3.23    0.40
  -1   3  20    0.25    0.28
   0   3  20   10.21    0.72
   1   3  20    0.01    0.28
   2   3  20    2.03    0.37
   3   3  20    0.40    0.29
   4   3  20    7.22    0.65
  -3   4  20    4.41    0.49
  -2   4  20    0.75    0.32
  -1   4  20    1.21    0.33
   0   4  20    2.30    0.39
   1   4  20    1.51    0.36
   2   4  20    0.53    0.33
  -2  -3  21   17.51    0.86
  -1  -3  21    2.19    0.25
   0  -3  21    3.79    0.33
   1  -3  21    9.01    0.57
  -4  -2  21    0.16    0.18
  -3  -2  21   15.22    0.78
  -2  -2  21   -0.03    0.19
  -1  -2  21    0.51    0.20
   0  -2  21    0.19    0.20
   1  -2  21    0.89    0.24
   2  -2  21    1.85    0.29
   3  -2  21    2.61    0.34
  -4  -1  21    2.53    0.29
  -3  -1  21    6.91    0.49
  -2  -1  21    0.17    0.20
  -1  -1  21   -0.09    0.21
   0  -1  21    1.86    0.28
   1  -1  21    3.21    0.35
   2  -1  21    0.63    0.25
   3  -1  21    0.13    0.24
   4  -1  21    1.34    0.31
  -5   0  21    0.06    0.23
  -4   0  21   -0.09    0.22
  -3   0  21   -0.15    0.21
  -2   0  21    0.16    0.22
  -1   0  21   -0.13    0.22
   0   0  21    0.05    0.24
   1   0  21   -0.14    0.23
   2   0  21    0.06    0.24
   3   0  21    0.27    0.25
   4   0  21    0.04    0.26
  -4   1  21    2.37    0.35
  -3   1  21    6.98    0.56
  -2   1  21    0.05    0.24
  -1   1  21   -0.17    0.24
   0   1  21    1.18    0.30
   1   1  21    2.88    0.36
   2   1  21    0.25    0.26
   3   1  21    0.50    0.29
   4   1  21    0.78    0.31
  -4   2  21    0.44    0.28
  -3   2  21   16.23    0.93
  -2   2  21    0.41    0.26
  -1   2  21    0.43    0.27
   0   2  21    0.81    0.30
   1   2  21    1.45    0.33
   2   2  21    1.75    0.35
   3   2  21    2.52    0.40
  -2   3  21   19.17    1.08
  -1   3  21    2.51    0.39
   0   3  21    3.59    0.45
   1   3  21    9.39    0.73
  -1   0  22   18.37    0.98
   0   0  22    0.30    0.25
   1   0  22    3.40    0.38
   0   0   0    0.00    0.00
;
_shelx_hkl_checksum              88406
loop_
_space_group_symop_operation_xyz
'x, y, z'
'-x, y+1/2, -z+1/2'
'-x, -y, -z'
'x, -y-1/2, z-1/2'
loop_
_atom_site_label
_atom_site_type_symbol
_atom_site_fract_x
_atom_site_fract_y
_atom_site_fract_z
_atom_site_U_iso_or_equiv
_atom_site_adp_type
_atom_site_occupancy
_atom_site_site_symmetry_order
_atom_site_calc_flag
_atom_site_refinement_flags_posn
_atom_site_refinement_flags_adp
_atom_site_refinement_flags_occupancy
_atom_site_disorder_assembly
_atom_site_disorder_group
Cl1 Cl 0.36576(5) 0.56439(8) 0.24294(3) 0.02875(15) Uani 1 1 d . . . . .
Cl2 Cl 0.18126(5) 0.89696(7) 0.13069(3) 0.02456(14) Uani 1 1 d . . . . .
Zn1A Zn 0.30813(3) 0.68437(4) 0.12832(2) 0.01782(12) Uani 0.9330(19) 1 d . . P A
1
N2 N 0.44161(16) 0.7335(2) 0.04941(11) 0.0195(4) Uani 1 1 d . . . . .
H1B H 0.392341 0.713622 0.088340 0.023 Uiso 0.0670(19) 1 calc R U P A 2
N1 N 0.17661(16) 0.3887(2) -0.06415(11) 0.0214(4) Uani 1 1 d . . . . .
O1 O 0.10513(16) 0.2791(2) -0.10698(10) 0.0324(4) Uani 1 1 d . . . . .
H1A H 0.055454 0.237578 -0.076093 0.039 Uiso 0.9330(19) 1 calc R U P A 1
N3A N 0.00451(16) 0.2482(2) 0.02913(11) 0.0220(4) Uani 0.9330(19) 1 d . . P A 1
C32A C 0.0819(2) 0.3718(4) 0.15082(15) 0.0337(6) Uani 0.9330(19) 1 d . . P A 1
H32A H 0.138363 0.442235 0.177115 0.040 Uiso 0.9330(19) 1 calc R U P A 1
N4 N 0.25496(15) 0.5312(2) 0.03560(11) 0.0172(4) Uani 1 1 d . . . . .
C2 C 0.31763(18) 0.5615(3) -0.03278(13) 0.0177(4) Uani 1 1 d . . . . .
C1 C 0.26913(19) 0.4724(3) -0.09697(13) 0.0212(5) Uani 1 1 d . . . . .
C3 C 0.16942(18) 0.4241(3) 0.01557(13) 0.0192(4) Uani 1 1 d . . . . .
C31 C 0.08306(18) 0.3478(3) 0.06745(14) 0.0207(5) Uani 1 1 d . . . . .
C33 C -0.0771(2) 0.1718(3) 0.07257(16) 0.0295(5) Uani 1 1 d . . . . .
H33 H -0.132527 0.101151 0.045418 0.035 Uiso 1 1 calc R U . A 1
C34 C -0.0845(2) 0.1909(4) 0.15485(17) 0.0361(6) Uani 1 1 d . . . . .
H34 H -0.144591 0.135825 0.183562 0.043 Uiso 1 1 calc R U . . .
C35 C -0.0039(2) 0.2903(4) 0.19460(17) 0.0387(6) Uani 1 1 d . . . . .
H35 H -0.006504 0.303647 0.251529 0.046 Uiso 1 1 calc R U . A 1
C11 C 0.2966(2) 0.4525(4) -0.18340(14) 0.0339(6) Uani 1 1 d . . . . .
H11A H 0.245070 0.366586 -0.207775 0.051 Uiso 1 1 calc R U . . .
H11B H 0.378524 0.417428 -0.188187 0.051 Uiso 1 1 calc R U . . .
H11C H 0.284395 0.560210 -0.211394 0.051 Uiso 1 1 calc R U . . .
C21 C 0.42099(18) 0.6711(2) -0.02563(13) 0.0176(4) Uani 1 1 d . . . . .
C22 C 0.49577(19) 0.7053(3) -0.08859(14) 0.0221(5) Uani 1 1 d . . . . .
H22 H 0.479161 0.662845 -0.141276 0.026 Uiso 1 1 calc R U . . .
C23 C 0.5945(2) 0.8018(3) -0.07335(16) 0.0273(5) Uani 1 1 d . . . . .
H23 H 0.646628 0.826701 -0.115588 0.033 Uiso 1 1 calc R U . . .
C24 C 0.6171(2) 0.8622(3) 0.00388(16) 0.0278(5) Uani 1 1 d . . . . .
H24 H 0.685419 0.927018 0.015704 0.033 Uiso 1 1 calc R U . . .
C25 C 0.5381(2) 0.8260(3) 0.06348(15) 0.0246(5) Uani 1 1 d . . . . .
H25 H 0.552863 0.868415 0.116396 0.029 Uiso 1 1 calc R U . . .
Zn1B Zn 0.2383(8) 0.6191(8) 0.1362(4) 0.054(3) Uani 0.0670(19) 1 d . . P A 2
N3B N 0.0819(2) 0.3718(4) 0.15082(15) 0.0337(6) Uani 0.0670(19) 1 d . . P A 2
C32B C 0.00451(16) 0.2482(2) 0.02913(11) 0.0220(4) Uani 0.0670(19) 1 d . . P A 2
H32B H 0.006890 0.232360 -0.027656 0.026 Uiso 0.0670(19) 1 calc R U P A 2
loop_
_atom_site_aniso_label
_atom_site_aniso_U_11
_atom_site_aniso_U_22
_atom_site_aniso_U_33
_atom_site_aniso_U_23
_atom_site_aniso_U_13
_atom_site_aniso_U_12
Cl1 0.0318(3) 0.0354(3) 0.0189(3) 0.0019(2) -0.0031(2) 0.0057(2)
Cl2 0.0244(3) 0.0231(3) 0.0262(3) -0.0033(2) 0.0003(2) 0.0040(2)
Zn1A 0.0189(2) 0.01828(18) 0.01617(15) -0.00191(10) -0.00095(11) -0.00045(14)
N2 0.0204(9) 0.0157(9) 0.0222(9) 0.0024(7) -0.0018(7) 0.0022(7)
N1 0.0203(9) 0.0209(9) 0.0226(10) -0.0021(8) -0.0064(7) -0.0022(7)
O1 0.0350(10) 0.0360(10) 0.0260(9) -0.0057(8) -0.0047(7) -0.0145(8)
N3A 0.0195(9) 0.0220(10) 0.0242(10) 0.0030(8) -0.0033(8) -0.0031(7)
C32A 0.0294(13) 0.0421(15) 0.0294(13) -0.0085(11) -0.0014(10) -0.0042(11)
N4 0.0164(9) 0.0154(9) 0.0198(9) -0.0008(7) -0.0005(7) 0.0013(7)
C2 0.0190(10) 0.0160(10) 0.0181(10) 0.0022(8) -0.0015(8) 0.0034(8)
C1 0.0244(11) 0.0208(11) 0.0182(11) 0.0023(9) -0.0033(8) 0.0051(9)
C3 0.0172(10) 0.0173(10) 0.0228(11) -0.0018(8) -0.0034(8) 0.0030(8)
C31 0.0160(10) 0.0192(10) 0.0269(12) -0.0030(9) -0.0014(9) 0.0020(8)
C33 0.0216(12) 0.0277(13) 0.0390(14) 0.0082(11) -0.0022(10) -0.0051(9)
C34 0.0236(12) 0.0466(16) 0.0383(15) 0.0103(13) 0.0074(11) 0.0009(11)
C35 0.0340(14) 0.0531(18) 0.0293(14) -0.0017(12) 0.0089(11) -0.0001(12)
C11 0.0447(15) 0.0409(15) 0.0160(11) 0.0025(10) 0.0015(10) -0.0004(12)
C21 0.0180(10) 0.0134(10) 0.0212(11) 0.0034(8) 0.0000(8) 0.0040(8)
C22 0.0227(11) 0.0194(11) 0.0242(11) 0.0042(9) 0.0023(9) 0.0047(9)
C23 0.0229(11) 0.0205(11) 0.0388(14) 0.0107(10) 0.0066(10) 0.0038(9)
C24 0.0179(11) 0.0149(11) 0.0502(16) 0.0056(10) -0.0056(10) 0.0005(9)
C25 0.0236(11) 0.0164(11) 0.0333(13) 0.0003(9) -0.0078(10) 0.0037(9)
Zn1B 0.074(7) 0.032(3) 0.053(4) -0.017(3) -0.035(4) 0.015(4)
N3B 0.0294(13) 0.0421(15) 0.0294(13) -0.0085(11) -0.0014(10) -0.0042(11)
C32B 0.0195(9) 0.0220(10) 0.0242(10) 0.0030(8) -0.0033(8) -0.0031(7)
loop_
_atom_type_symbol
_atom_type_description
_atom_type_scat_dispersion_real
_atom_type_scat_dispersion_imag
_atom_type_scat_source
C C 0.0033 0.0016 'International Tables Vol C Tables 4.2.6.8 and 6.1.1.4'
H H 0.0000 0.0000 'International Tables Vol C Tables 4.2.6.8 and 6.1.1.4'
N N 0.0061 0.0033 'International Tables Vol C Tables 4.2.6.8 and 6.1.1.4'
O O 0.0106 0.0060 'International Tables Vol C Tables 4.2.6.8 and 6.1.1.4'
Zn Zn 0.2839 1.4301 'International Tables Vol C Tables 4.2.6.8 and 6.1.1.4'
Cl Cl 0.1484 0.1585 'International Tables Vol C Tables 4.2.6.8 and 6.1.1.4'
loop_
_geom_angle_atom_site_label_1
_geom_angle_atom_site_label_2
_geom_angle_atom_site_label_3
_geom_angle
_geom_angle_site_symmetry_1
_geom_angle_site_symmetry_3
_geom_angle_publ_flag
N4 Zn1A N2 81.14(7) . . ?
N4 Zn1A Cl1 117.90(5) . . ?
N2 Zn1A Cl1 114.59(5) . . ?
N4 Zn1A Cl2 106.44(5) . . ?
N2 Zn1A Cl2 111.00(5) . . ?
Cl1 Zn1A Cl2 119.43(2) . . ?
C25 N2 C21 119.0(2) . . ?
C25 N2 Zn1A 127.47(16) . . ?
C21 N2 Zn1A 113.43(14) . . ?
C25 N2 H1B 120.5 . . ?
C21 N2 H1B 120.5 . . ?
C3 N1 C1 110.61(18) . . ?
C3 N1 O1 125.75(19) . . ?
C1 N1 O1 123.60(18) . . ?
N1 O1 H1A 109.5 . . ?
C33 N3A C31 118.5(2) . . ?
C35 C32A C31 118.5(2) . . ?
C35 C32A H32A 120.8 . . ?
C31 C32A H32A 120.8 . . ?
C3 N4 C2 107.42(18) . . ?
C3 N4 Zn1B 112.4(4) . . ?
C2 N4 Zn1B 139.0(4) . . ?
C3 N4 Zn1A 140.49(15) . . ?
C2 N4 Zn1A 111.42(13) . . ?
N4 C2 C1 109.77(19) . . ?
N4 C2 C21 118.05(18) . . ?
C1 C2 C21 132.1(2) . . ?
N1 C1 C2 103.89(19) . . ?
N1 C1 C11 121.0(2) . . ?
C2 C1 C11 135.1(2) . . ?
N4 C3 N1 108.31(19) . . ?
N4 C3 C31 128.4(2) . . ?
N1 C3 C31 123.21(19) . . ?
N3A C31 C32A 121.8(2) . . ?
C32B C31 N3B 121.8(2) . . ?
C32B C31 C3 114.8(2) . . ?
N3A C31 C3 114.8(2) . . ?
C32A C31 C3 123.5(2) . . ?
N3B C31 C3 123.5(2) . . ?
C32B C33 C34 123.0(2) . . ?
N3A C33 C34 123.0(2) . . ?
N3A C33 H33 118.5 . . ?
C34 C33 H33 118.5 . . ?
C35 C34 C33 118.9(2) . . ?
C35 C34 H34 120.6 . . ?
C33 C34 H34 120.6 . . ?
C34 C35 N3B 119.3(3) . . ?
C34 C35 C32A 119.3(3) . . ?
C34 C35 H35 120.3 . . ?
C32A C35 H35 120.3 . . ?
C1 C11 H11A 109.5 . . ?
C1 C11 H11B 109.5 . . ?
H11A C11 H11B 109.5 . . ?
C1 C11 H11C 109.5 . . ?
H11A C11 H11C 109.5 . . ?
H11B C11 H11C 109.5 . . ?
N2 C21 C22 121.4(2) . . ?
N2 C21 C2 114.32(19) . . ?
C22 C21 C2 124.2(2) . . ?
C23 C22 C21 119.0(2) . . ?
C23 C22 H22 120.5 . . ?
C21 C22 H22 120.5 . . ?
C22 C23 C24 119.6(2) . . ?
C22 C23 H23 120.2 . . ?
C24 C23 H23 120.2 . . ?
C25 C24 C23 118.6(2) . . ?
C25 C24 H24 120.7 . . ?
C23 C24 H24 120.7 . . ?
N2 C25 C24 122.5(2) . . ?
N2 C25 H25 118.8 . . ?
C24 C25 H25 118.8 . . ?
N4 Zn1B Cl2 111.5(3) . . ?
N4 Zn1B Cl1 123.6(3) . . ?
Cl2 Zn1B Cl1 112.6(2) . . ?
N4 Zn1B N3B 83.5(3) . . ?
Cl2 Zn1B N3B 121.2(4) . . ?
Cl1 Zn1B N3B 101.7(3) . . ?
C35 N3B C31 118.5(2) . . ?
C35 N3B Zn1B 150.4(2) . . ?
C31 N3B Zn1B 89.3(2) . . ?
C33 C32B C31 118.5(2) . . ?
C33 C32B H32B 120.7 . . ?
C31 C32B H32B 120.7 . . ?
loop_
_geom_bond_atom_site_label_1
_geom_bond_atom_site_label_2
_geom_bond_distance
_geom_bond_site_symmetry_2
_geom_bond_publ_flag
Cl1 Zn1A 2.2091(6) . ?
Cl1 Zn1B 2.302(5) . ?
Cl2 Zn1A 2.2221(6) . ?
Cl2 Zn1B 2.298(6) . ?
Zn1A N4 2.0383(18) . ?
Zn1A N2 2.0679(19) . ?
N2 C25 1.338(3) . ?
N2 C21 1.353(3) . ?
N2 H1B 0.8800 . ?
N1 C3 1.354(3) . ?
N1 C1 1.371(3) . ?
N1 O1 1.376(2) . ?
O1 H1A 0.8400 . ?
N3A C33 1.335(3) . ?
N3A C31 1.342(3) . ?
C32A C35 1.391(4) . ?
C32A C31 1.394(3) . ?
C32A H32A 0.9500 . ?
N4 C3 1.329(3) . ?
N4 C2 1.375(3) . ?
N4 Zn1B 1.820(6) . ?
C2 C1 1.381(3) . ?
C2 C21 1.467(3) . ?
C1 C11 1.481(3) . ?
C3 C31 1.455(3) . ?
C31 C32B 1.342(3) . ?
C31 N3B 1.394(3) . ?
C33 C32B 1.335(3) . ?
C33 C34 1.376(4) . ?
C33 H33 0.9500 . ?
C34 C35 1.368(4) . ?
C34 H34 0.9500 . ?
C35 N3B 1.391(4) . ?
C35 H35 0.9500 . ?
C11 H11A 0.9800 . ?
C11 H11B 0.9800 . ?
C11 H11C 0.9800 . ?
C21 C22 1.390(3) . ?
C22 C23 1.380(3) . ?
C22 H22 0.9500 . ?
C23 C24 1.384(4) . ?
C23 H23 0.9500 . ?
C24 C25 1.383(4) . ?
C24 H24 0.9500 . ?
C25 H25 0.9500 . ?
Zn1B N3B 2.665(11) . ?
C32B H32B 0.9500 . ?
loop_
_geom_hbond_atom_site_label_D
_geom_hbond_atom_site_label_H
_geom_hbond_atom_site_label_A
_geom_hbond_distance_DH
_geom_hbond_distance_HA
_geom_hbond_distance_DA
_geom_hbond_angle_DHA
_geom_hbond_site_symmetry_A
_geom_hbond_publ_flag
N2 H1B^b Cl1 0.88 2.84 3.5998(19) 144.9 . yes
N2 H1B^b Cl2 0.88 2.91 3.5366(19) 129.3 . yes
O1 H1A^a N3A^a 0.84 1.85 2.567(3) 141.9 . yes
C32A^a H32A^a Cl1 0.95 2.95 3.860(3) 160.4 . yes
C33 H33^a Cl2 0.95 2.96 3.584(3) 124.8 3_565 yes
C34 H34 Cl1 0.95 2.88 3.799(3) 162.0 2_545 yes
C35 H35^a Cl2 0.95 2.92 3.670(3) 136.9 2_545 yes
C11 H11C Cl2 0.98 2.86 3.527(3) 125.9 4_575 yes
C25 H25 Cl1 0.95 2.93 3.858(2) 165.1 2_655 yes
C32B^b H32B^b Cl2 0.95 2.90 3.5421(19) 126.2 3_565 yes
C32B^b H32B^b O1 0.95 1.79 2.567(3) 137.3 . yes
loop_
_geom_torsion_atom_site_label_1
_geom_torsion_atom_site_label_2
_geom_torsion_atom_site_label_3
_geom_torsion_atom_site_label_4
_geom_torsion
_geom_torsion_site_symmetry_1
_geom_torsion_site_symmetry_2
_geom_torsion_site_symmetry_3
_geom_torsion_site_symmetry_4
_geom_torsion_publ_flag
C3 N4 C2 C1 0.6(2) . . . . ?
Zn1B N4 C2 C1 -165.2(3) . . . . ?
Zn1A N4 C2 C1 -172.00(14) . . . . ?
C3 N4 C2 C21 -177.31(17) . . . . ?
Zn1B N4 C2 C21 16.9(4) . . . . ?
Zn1A N4 C2 C21 10.1(2) . . . . ?
C3 N1 C1 C2 -0.2(2) . . . . ?
O1 N1 C1 C2 -177.87(19) . . . . ?
C3 N1 C1 C11 179.1(2) . . . . ?
O1 N1 C1 C11 1.5(3) . . . . ?
N4 C2 C1 N1 -0.2(2) . . . . ?
C21 C2 C1 N1 177.3(2) . . . . ?
N4 C2 C1 C11 -179.5(2) . . . . ?
C21 C2 C1 C11 -1.9(4) . . . . ?
C2 N4 C3 N1 -0.7(2) . . . . ?
Zn1B N4 C3 N1 169.2(2) . . . . ?
Zn1A N4 C3 N1 168.39(16) . . . . ?
C2 N4 C3 C31 176.9(2) . . . . ?
Zn1B N4 C3 C31 -13.1(3) . . . . ?
Zn1A N4 C3 C31 -13.9(4) . . . . ?
C1 N1 C3 N4 0.6(2) . . . . ?
O1 N1 C3 N4 178.19(18) . . . . ?
C1 N1 C3 C31 -177.19(19) . . . . ?
O1 N1 C3 C31 0.4(3) . . . . ?
C33 N3A C31 C32A 0.5(3) . . . . ?
C33 N3A C31 C3 179.3(2) . . . . ?
C35 C32A C31 N3A -0.4(4) . . . . ?
C35 C32A C31 C3 -179.0(2) . . . . ?
N4 C3 C31 C32B 177.8(2) . . . . ?
N1 C3 C31 C32B -4.8(3) . . . . ?
N4 C3 C31 N3A 177.8(2) . . . . ?
N1 C3 C31 N3A -4.8(3) . . . . ?
N4 C3 C31 C32A -3.4(4) . . . . ?
N1 C3 C31 C32A 173.9(2) . . . . ?
N4 C3 C31 N3B -3.4(4) . . . . ?
N1 C3 C31 N3B 173.9(2) . . . . ?
C31 N3A C33 C34 0.2(4) . . . . ?
C32B C33 C34 C35 -1.0(4) . . . . ?
N3A C33 C34 C35 -1.0(4) . . . . ?
C33 C34 C35 N3B 1.1(4) . . . . ?
C33 C34 C35 C32A 1.1(4) . . . . ?
C31 C32A C35 C34 -0.5(4) . . . . ?
C25 N2 C21 C22 -2.0(3) . . . . ?
Zn1A N2 C21 C22 173.93(15) . . . . ?
C25 N2 C21 C2 175.73(18) . . . . ?
Zn1A N2 C21 C2 -8.3(2) . . . . ?
N4 C2 C21 N2 -1.2(3) . . . . ?
C1 C2 C21 N2 -178.5(2) . . . . ?
N4 C2 C21 C22 176.46(19) . . . . ?
C1 C2 C21 C22 -0.9(4) . . . . ?
N2 C21 C22 C23 1.5(3) . . . . ?
C2 C21 C22 C23 -175.9(2) . . . . ?
C21 C22 C23 C24 0.1(3) . . . . ?
C22 C23 C24 C25 -1.2(3) . . . . ?
C21 N2 C25 C24 0.8(3) . . . . ?
Zn1A N2 C25 C24 -174.47(16) . . . . ?
C23 C24 C25 N2 0.8(3) . . . . ?
C3 N4 Zn1B Cl2 -107.4(4) . . . . ?
C2 N4 Zn1B Cl2 57.9(6) . . . . ?
C3 N4 Zn1B Cl1 113.5(5) . . . . ?
C2 N4 Zn1B Cl1 -81.2(6) . . . . ?
C3 N4 Zn1B N3B 13.7(2) . . . . ?
C2 N4 Zn1B N3B 179.0(3) . . . . ?
C34 C35 N3B C31 -0.5(4) . . . . ?
C34 C35 N3B Zn1B 157.6(4) . . . . ?
C32B C31 N3B C35 -0.4(4) . . . . ?
C3 C31 N3B C35 -179.0(2) . . . . ?
C32B C31 N3B Zn1B -169.7(2) . . . . ?
C3 C31 N3B Zn1B 11.6(3) . . . . ?
C34 C33 C32B C31 0.2(4) . . . . ?
N3B C31 C32B C33 0.5(3) . . . . ?
C3 C31 C32B C33 179.3(2) . . . . ?
