#------------------------------------------------------------------------------
#$Date: 2025-08-23 01:35:05 +0300 (Sat, 23 Aug 2025) $
#$Revision: 301870 $
#$URL: file:///home/coder/svn-repositories/cod/cif/7/24/25/7242539.cif $
#------------------------------------------------------------------------------
#
# This file is available in the Crystallography Open Database (COD),
# http://www.crystallography.net/
#
# All data on this site have been placed in the public domain by the
# contributors.
#
data_7242539
loop_
_publ_author_name
'Shu, Yuanhong'
'Ye, Kaiqi'
'Yue, Yuan'
'Sun, Jingbo'
'Wang, Haoran'
'Zhong, Jiangbin'
'Yang, Xiqiao'
'Gao, Hongqiang'
'Lu, Ran'
_publ_section_title
;
 Fluorine as a robust balancer for tuning the reactivity of
 topo-photoreactions of chalcones and the photomechanical effects of
 molecular crystals
;
_journal_issue                   34
_journal_name_full               CrystEngComm
_journal_page_first              5856
_journal_page_last               5868
_journal_paper_doi               10.1039/D1CE00086A
_journal_volume                  23
_journal_year                    2021
_chemical_formula_moiety         'C32 H22 F6 O2'
_chemical_formula_sum            'C32 H22 F6 O2'
_chemical_formula_weight         552.49
_space_group_crystal_system      monoclinic
_space_group_IT_number           7
_space_group_name_Hall           'P -2yc'
_space_group_name_H-M_alt        'P 1 c 1'
_atom_sites_solution_hydrogens   geom
_audit_block_doi                 10.5517/ccdc.csd.cc248sw3
_audit_creation_date             2021-03-11
_audit_creation_method
;
Olex2 1.2
(compiled 2018.05.29 svn.r3508 for OlexSys, GUI svn.r5506)
;
_audit_update_record
;
2021-03-11 deposited with the CCDC.	2021-03-26 downloaded from the CCDC.
;
_cell_angle_alpha                90
_cell_angle_beta                 107.0840(10)
_cell_angle_gamma                90
_cell_formula_units_Z            2
_cell_length_a                   13.6767(5)
_cell_length_b                   8.6874(3)
_cell_length_c                   11.3310(4)
_cell_measurement_reflns_used    9749
_cell_measurement_temperature    116(2)
_cell_measurement_theta_max      28.286
_cell_measurement_theta_min      2.816
_cell_volume                     1286.89(8)
_computing_cell_refinement       'SAINT V8.38A (?, 2016)'
_computing_data_reduction        'SAINT V8.38A (?, 2016)'
_computing_molecular_graphics    'Olex2 (Dolomanov et al., 2009)'
_computing_publication_material  'Olex2 (Dolomanov et al., 2009)'
_computing_structure_refinement  'XL (Sheldrick, 2008)'
_computing_structure_solution    'XS (Sheldrick, 2008)'
_diffrn_ambient_temperature      116.06
_diffrn_measured_fraction_theta_full 0.985
_diffrn_measured_fraction_theta_max 0.984
_diffrn_measurement_device_type  'CCD area detector'
_diffrn_measurement_method       'phi and omega scans'
_diffrn_radiation_type           MoK\a
_diffrn_radiation_wavelength     0.71073
_diffrn_reflns_av_R_equivalents  0.0299
_diffrn_reflns_av_unetI/netI     0.0355
_diffrn_reflns_Laue_measured_fraction_full 0.985
_diffrn_reflns_Laue_measured_fraction_max 0.984
_diffrn_reflns_limit_h_max       18
_diffrn_reflns_limit_h_min       -15
_diffrn_reflns_limit_k_max       11
_diffrn_reflns_limit_k_min       -11
_diffrn_reflns_limit_l_max       14
_diffrn_reflns_limit_l_min       -15
_diffrn_reflns_number            16546
_diffrn_reflns_point_group_measured_fraction_full 0.903
_diffrn_reflns_point_group_measured_fraction_max 0.851
_diffrn_reflns_theta_full        25.242
_diffrn_reflns_theta_max         28.302
_diffrn_reflns_theta_min         2.815
_exptl_absorpt_coefficient_mu    0.117
_exptl_absorpt_correction_type   none
_exptl_crystal_colour            colourless
_exptl_crystal_colour_primary    colourless
_exptl_crystal_density_diffrn    1.426
_exptl_crystal_description       block
_exptl_crystal_F_000             568
_exptl_crystal_size_max          0.4
_exptl_crystal_size_mid          0.2
_exptl_crystal_size_min          0.2
_refine_diff_density_max         0.401
_refine_diff_density_min         -0.447
_refine_diff_density_rms         0.078
_refine_ls_abs_structure_details
;
 Flack x determined using 2024 quotients [(I+)-(I-)]/[(I+)+(I-)]
 (Parsons, Flack and Wagner, Acta Cryst. B69 (2013) 249-259).
;
_refine_ls_abs_structure_Flack   0.0(2)
_refine_ls_extinction_method     none
_refine_ls_goodness_of_fit_ref   1.271
_refine_ls_hydrogen_treatment    constr
_refine_ls_matrix_type           full
_refine_ls_number_parameters     363
_refine_ls_number_reflns         5436
_refine_ls_number_restraints     2
_refine_ls_restrained_S_all      1.271
_refine_ls_R_factor_all          0.0559
_refine_ls_R_factor_gt           0.0542
_refine_ls_shift/su_max          0.000
_refine_ls_shift/su_mean         0.000
_refine_ls_structure_factor_coef Fsqd
_refine_ls_weighting_details
'w=1/[\s^2^(Fo^2^)+2.0837P] where P=(Fo^2^+2Fc^2^)/3'
_refine_ls_weighting_scheme      calc
_refine_ls_wR_factor_gt          0.1156
_refine_ls_wR_factor_ref         0.1162
_reflns_Friedel_coverage         0.727
_reflns_Friedel_fraction_full    0.820
_reflns_Friedel_fraction_max     0.717
_reflns_number_gt                5238
_reflns_number_total             5436
_reflns_threshold_expression     'I > 2\s(I)'
_cod_data_source_file            d1ce00086a31.cif
_cod_data_source_block           D-3FChMe-4
_cod_depositor_comments
'Adding full bibliography for 7242537--7242549.cif.'
_cod_database_code               7242539
_shelx_shelxl_version_number     2014/7
_shelx_space_group_comment
;
The symmetry employed for this shelxl refinement is uniquely defined
by the following loop, which should always be used as a source of
symmetry information in preference to the above space-group names.
They are only intended as comments.
;
_shelx_estimated_absorpt_t_max   0.977
_shelx_estimated_absorpt_t_min   0.955
_olex2_refinement_description
;
1. Fixed Uiso
 At 1.2 times of:
  All C(H) groups
 At 1.5 times of:
  All C(H,H,H) groups
2.a Ternary CH refined with riding coordinates:
 C9(H9), C14(H14), C22(H22), C23(H23)
2.b Aromatic/amide H refined with riding coordinates:
 C8(H8), C11(H11), C15(H15), C16(H16), C20(H20), C21(H21), C24(H24), C25(H25),
 C26(H26), C28(H28), C29(H29), C30(H30)
2.c Idealised Me refined as rotating group:
 C31(H31A,H31B,H31C), C32(H32A,H32B,H32C)
;
_shelx_res_file
;
    d-3fchme-4.res created by SHELXL-2014/7

TITL b_a.res in Pc
REM Old TITL b in Pc
REM SHELXT solution in Pc
REM R1 0.085, Rweak 0.042, Alpha 0.002, Orientation as input
REM Flack x = 0.140 ( 0.215 ) from Parsons' quotients
REM Formula found by SHELXT: C32 F8
CELL 0.71073 13.6767 8.6874 11.331 90 107.084 90
ZERR 2 0.0005 0.0003 0.0004 0 0.001 0
LATT -1
SYMM +X,-Y,0.5+Z
SFAC C H F O
UNIT 64 44 12 4

L.S. 10
PLAN  20
SIZE 0.2 0.2 0.4
TEMP -157.09
BOND $H
LIST 6
fmap 2
acta
REM <olex2.extras>
REM <HklSrc "%.\\D-3FChMe-4.hkl">
REM </olex2.extras>

WGHT    0.000000    2.083700
FVAR       1.19033
F1    3    0.395829    1.142033    0.496697    11.00000    0.02838    0.01295 =
         0.02141   -0.00639    0.01004   -0.00013
F2    3    0.749619   -0.059181    0.400347    11.00000    0.03082    0.01556 =
         0.02058   -0.00007    0.00650    0.01122
F3    3    0.608726    0.093417    0.223590    11.00000    0.03184    0.01956 =
         0.01091   -0.00152    0.00421    0.01071
F4    3    0.786348    0.021087    0.640292    11.00000    0.01925    0.01645 =
         0.01679    0.00381   -0.00084    0.00747
F5    3    0.254017    1.168519    0.275136    11.00000    0.03252    0.01950 =
         0.02289    0.00582    0.00698    0.01326
F6    3    0.231658    0.941098    0.105740    11.00000    0.03533    0.02912 =
         0.01665    0.00026   -0.00835    0.01434
O1    4    0.392709    0.573376    0.620789    11.00000    0.01454    0.02080 =
         0.01114    0.00101    0.00317    0.00260
O2    4    0.695949    0.607735    0.373420    11.00000    0.01698    0.02064 =
         0.01188   -0.00206    0.00616   -0.00159
C1    1    0.718512    0.103400    0.552937    11.00000    0.00968    0.01106 =
         0.01847    0.00334    0.00158    0.00080
C2    1    0.689767    0.619178    0.478125    11.00000    0.01132    0.00533 =
         0.01689    0.00344    0.00337    0.00252
C3    1    0.598008    0.311023    0.494099    11.00000    0.00970    0.01005 =
         0.01478   -0.00087    0.00636   -0.00189
C4    1    0.628284    0.140937    0.342382    11.00000    0.01875    0.01359 =
         0.01092    0.00080    0.00377   -0.00040
C5    1    0.700468    0.060054    0.431806    11.00000    0.01570    0.00765 =
         0.01981   -0.00098    0.00550   -0.00297
C6    1    0.781382    0.642630    0.586653    11.00000    0.01162    0.00658 =
         0.01366    0.00123    0.00119    0.00147
C7    1    0.365423    0.550136    0.508929    11.00000    0.01133    0.00708 =
         0.01713    0.00269    0.00424   -0.00076
C8    1    0.577314    0.265660    0.370292    11.00000    0.01018    0.01157 =
         0.01161    0.00395    0.00086    0.00226
AFIX  43
H8    2    0.528838    0.320302    0.306777    11.00000   -1.20000
AFIX   0
C9    1    0.490949    0.626976    0.388884    11.00000    0.01053    0.00828 =
         0.00717    0.00022    0.00289    0.00112
AFIX  13
H9    2    0.508188    0.589474    0.313964    11.00000   -1.20000
AFIX   0
C10   1    0.385547    1.026281    0.414345    11.00000    0.01969    0.00869 =
         0.01702   -0.00305    0.01113   -0.00262
C11   1    0.668593    0.227860    0.585341    11.00000    0.01580    0.01061 =
         0.00807    0.00197    0.00334   -0.00199
AFIX  43
H11   2    0.682489    0.256387    0.669602    11.00000   -1.20000
AFIX   0
C12   1    0.434158    0.777999    0.359020    11.00000    0.01032    0.00935 =
         0.01335    0.00357    0.00537    0.00173
C13   1    0.259598    0.587415    0.432506    11.00000    0.01242    0.00781 =
         0.01440    0.00394    0.00498    0.00052
C14   1    0.586311    0.612110    0.502193    11.00000    0.01070    0.00999 =
         0.00630   -0.00063    0.00191    0.00161
AFIX  13
H14   2    0.583202    0.688250    0.567182    11.00000   -1.20000
AFIX   0
C15   1    0.446000    0.896408    0.445162    11.00000    0.01319    0.01263 =
         0.00650   -0.00063    0.00190   -0.00179
AFIX  43
H15   2    0.495036    0.887886    0.524078    11.00000   -1.20000
AFIX   0
C16   1    0.777043    0.629922    0.706843    11.00000    0.01358    0.01598 =
         0.01844    0.00249    0.00641    0.00340
AFIX  43
H16   2    0.715054    0.599080    0.721672    11.00000   -1.20000
AFIX   0
C17   1    0.303125    0.924489    0.216411    11.00000    0.02354    0.02214 =
         0.01206    0.00422    0.00196    0.00024
C18   1    0.952408    0.711989    0.786894    11.00000    0.01448    0.02444 =
         0.01809   -0.00257   -0.00142    0.00069
C19   1    0.313410    1.042384    0.301791    11.00000    0.01657    0.01578 =
         0.01992    0.00545    0.00767    0.00187
C20   1    0.219908    0.539321    0.309242    11.00000    0.01490    0.01324 =
         0.01349   -0.00100    0.00626    0.00038
AFIX  43
H20   2    0.260163    0.477220    0.272475    11.00000   -1.20000
AFIX   0
C21   1    0.873677    0.686986    0.565820    11.00000    0.01713    0.01320 =
         0.01352    0.00442    0.00632    0.00627
AFIX  43
H21   2    0.878820    0.692034    0.484103    11.00000   -1.20000
AFIX   0
C22   1    0.546631    0.449145    0.530886    11.00000    0.00939    0.01000 =
         0.00896    0.00092    0.00303   -0.00047
AFIX  13
H22   2    0.545685    0.441778    0.618616    11.00000   -1.20000
AFIX   0
C23   1    0.439185    0.490811    0.442816    11.00000    0.01158    0.01101 =
         0.00734    0.00197    0.00095   -0.00176
AFIX  13
H23   2    0.409387    0.408640    0.380890    11.00000   -1.20000
AFIX   0
C24   1    0.362619    0.794537    0.242096    11.00000    0.01526    0.01225 =
         0.01291   -0.00079    0.00052    0.00147
AFIX  43
H24   2    0.355488    0.716530    0.181390    11.00000   -1.20000
AFIX   0
C25   1    0.957590    0.723505    0.665915    11.00000    0.01148    0.02432 =
         0.02477    0.00295    0.00657    0.00012
AFIX  43
H25   2    1.019333    0.756774    0.651696    11.00000   -1.20000
AFIX   0
C26   1    0.198753    0.679683    0.483573    11.00000    0.01988    0.02588 =
         0.01146    0.00136    0.00624    0.00400
AFIX  43
H26   2    0.224402    0.713166    0.566793    11.00000   -1.20000
AFIX   0
C27   1    0.061996    0.674668    0.291589    11.00000    0.01236    0.02492 =
         0.02310    0.00856    0.00385    0.00202
C28   1    0.862581    0.661874    0.806187    11.00000    0.01946    0.02398 =
         0.01255    0.00083    0.00328    0.00148
AFIX  43
H28   2    0.859064    0.649039    0.888102    11.00000   -1.20000
AFIX   0
C29   1    0.101378    0.722765    0.413946    11.00000    0.01823    0.02713 =
         0.02432    0.00060    0.00893    0.00825
AFIX  43
H29   2    0.060965    0.785728    0.449864    11.00000   -1.20000
AFIX   0
C30   1    0.121880    0.582594    0.241258    11.00000    0.01786    0.02359 =
         0.01094    0.00129   -0.00090   -0.00452
AFIX  43
H30   2    0.095371    0.548212    0.158381    11.00000   -1.20000
AFIX   0
C31   1   -0.044768    0.722545    0.216220    11.00000    0.01606    0.04405 =
         0.02625    0.00611    0.00037    0.00609
AFIX 137
H31A  2   -0.083649    0.755857    0.271827    11.00000   -1.50000
H31B  2   -0.079460    0.635043    0.166803    11.00000   -1.50000
H31C  2   -0.040158    0.807660    0.161344    11.00000   -1.50000
AFIX   0
C32   1    1.044574    0.753173    0.894717    11.00000    0.01771    0.05350 =
         0.01770   -0.00543    0.00040   -0.00075
AFIX 137
H32A  2    1.088780    0.662725    0.918759    11.00000   -1.50000
H32B  2    1.021546    0.786880    0.964696    11.00000   -1.50000
H32C  2    1.082892    0.836500    0.870300    11.00000   -1.50000
AFIX   0
HKLF 4

REM  b_a.res in Pc
REM R1 =  0.0542 for    5238 Fo > 4sig(Fo)  and  0.0559 for all    5436 data
REM    363 parameters refined using      2 restraints

END

WGHT      0.0000      2.0803

REM Highest difference peak  0.401,  deepest hole -0.447,  1-sigma level  0.078
Q1    1   0.3349  0.9971  0.2464  11.00000  0.05    0.40
Q2    1   0.7151  0.1841  0.5706  11.00000  0.05    0.35
Q3    1   0.4622  0.6985  0.3997  11.00000  0.05    0.34
Q4    1   0.3845  0.9436  0.4376  11.00000  0.05    0.34
Q5    1   0.2374  0.6813  0.4407  11.00000  0.05    0.33
Q6    1   0.5461  0.3570  0.4934  11.00000  0.05    0.33
Q7    1   1.0783  0.7419  0.6189  11.00000  0.05    0.31
Q8    1   0.3299  1.0179  0.3713  11.00000  0.05    0.31
Q9    1   0.5901  0.2896  0.4384  11.00000  0.05    0.31
Q10   1   0.2823  0.9662  0.2727  11.00000  0.05    0.30
Q11   1   0.1817  0.6664  0.5399  11.00000  0.05    0.30
Q12   1   0.8353  0.5975  0.7621  11.00000  0.05    0.29
Q13   1   0.6232  0.6047  0.4607  11.00000  0.05    0.29
Q14   1   0.2387  0.5211  0.3910  11.00000  0.05    0.29
Q15   1   0.7537  0.1430  0.7428  11.00000  0.05    0.29
Q16   1   0.7791  0.6541  0.2917  11.00000  0.05    0.28
Q17   1   0.8657  0.7222  0.4938  11.00000  0.05    0.28
Q18   1   0.5987  0.6801  0.6612  11.00000  0.05    0.28
Q19   1   0.6389  0.0718  0.3833  11.00000  0.05    0.28
Q20   1   0.3026  0.5399  0.4750  11.00000  0.05    0.28
;
_shelx_res_checksum              45376
_shelx_hkl_file
;
   0   0   2 3996.60   93.39
   0   0   2 4018.60   92.49
   0   0  -2 4075.49   93.39
   0   0  -2 3961.60   92.29
   0   0   2 4005.40   91.29
   0   0  -2 4033.50   91.29
   0   0  -3   -1.00    1.60
   0   0  -3    0.40    2.10
   0   0   3    0.10    1.70
   0   0   3    1.20    2.30
   0   0  -3    1.10    2.00
   0   0   3   -0.30    1.70
   0   0  -4  317.37   12.90
   0   0   4  340.17   14.80
   0   0   4  346.67   15.90
   0   0  -4  333.67   14.50
   0   0   4  346.27   13.40
   0   0  -4  331.77   15.40
   0   0   5    0.30    2.70
   0   0   5    3.10    2.70
   0   0  -5   -1.30    1.80
   0   0  -5    2.10    2.90
   0   0  -5    0.10    2.10
   0   0   5   -3.00    2.10
   0   0  -6  912.01   31.70
   0   0  -6  906.81   29.40
   0   0  -6  929.21   34.10
   0   0   6  906.91   34.20
   0   0   6  900.51   29.50
   0   0   6  906.81   32.40
   0   0   7    0.60    3.60
   0   0   7    1.50    2.90
   0   0   7   -0.20    5.60
   0   0  -7    1.60    3.30
   0   0   8  657.03   30.00
   0   0   8  682.73   32.20
   0   0  -8  651.33   29.00
   0   0  -8  673.73   26.70
   0   0  -8  635.24   31.00
   0   0   8  693.93   26.80
   0   0  -9    1.50    4.40
   0   0   9    0.40    5.00
   0   0  -9   -0.30    5.00
   0   0   9    7.10    4.40
   0   0   9    3.80    5.30
   0   0  -9    1.60    6.20
   0   0 -10  729.93   35.10
   0   0 -10  749.92   37.10
   0   0  10  749.92   38.10
   0   0  10  762.92   35.30
   0   0 -10  710.43   30.20
   0   0  12  130.09   17.30
   0   0  12  137.89   17.20
   0   0 -12  159.58   21.50
   0   0 -13    5.90    7.20
   0   0  13    3.80    5.70
   0   0  13   -5.30    8.60
   0   0  14  593.34   34.70
   0   0 -14  544.25   33.10
   0   0  14  620.84   41.50
   0   0 -14  586.34   28.30
   0   1   1  547.25   13.00
   0   1  -1  526.85   18.90
   0  -1   1  514.15   15.40
   0  -1   1  524.85   17.20
   0   1  -2 1066.39   29.60
   0   1  -2 1051.79   28.30
   0   1   2 1063.49   28.20
   0   1   2 1030.90   25.70
   0   1  -2 1000.50   28.90
   0  -1  -2 1049.99   28.10
   0  -1  -2 1083.99   25.50
   0  -1   2 1069.19   29.50
   0  -1   2 1012.60   29.50
   0  -1   2 1048.60   28.30
   0   1  -3  841.72   26.80
   0   1  -3  824.72   26.20
   0   1  -3  830.62   24.80
   0   1   3  845.62   23.30
   0   1   3  839.62   25.70
   0  -1   3  870.61   25.20
   0  -1  -3  816.92   23.00
   0  -1   3  840.42   26.60
   0  -1  -3  820.42   25.40
   0  -1  -3  833.22   23.20
   0  -1   3  834.12   27.00
   0   1  -4 1024.10   30.30
   0   1  -4  986.30   31.90
   0   1  -4 1023.70   33.20
   0   1   4 1041.90   29.50
   0   1   4 1021.80   32.00
   0  -1  -4 1010.10   31.60
   0  -1   4 1034.40   30.70
   0  -1   4 1019.70   32.70
   0  -1  -4 1021.70   28.60
   0  -1  -4 1007.00   29.10
   0  -1   4  994.90   33.20
   0   1  -5  900.91   32.70
   0   1  -5  926.31   29.60
   0   1   5  928.71   29.30
   0   1   5  952.90   32.30
   0   1  -5  920.11   31.70
   0  -1   5  926.81   32.60
   0  -1  -5  936.21   28.10
   0  -1  -5  888.81   28.60
   0  -1   5  948.41   30.10
   0  -1  -5  913.31   31.50
   0  -1   5  954.60   33.60
   0   1   6  752.02   26.80
   0   1  -6  737.43   28.70
   0   1  -6  715.23   30.00
   0   1  -6  750.02   26.50
   0   1   6  742.23   29.40
   0  -1  -6  715.63   28.70
   0  -1   6  732.63   26.60
   0  -1  -6  706.23   25.90
   0  -1   6  740.33   29.50
   0  -1   6  755.52   30.90
   0  -1  -6  746.03   25.00
   0   1  -7   90.99   11.10
   0   1   7   93.09   11.20
   0   1  -7   77.79   10.30
   0   1   7   95.09    9.70
   0   1  -7   88.59    9.50
   0  -1   7   90.99    9.40
   0  -1   7  100.99   16.60
   0  -1  -7   90.99    7.10
   0  -1  -7   91.19    8.50
   0  -1  -7   65.69   12.80
   0  -1   7   99.69   11.70
   0  -1  -7   79.09   10.10
   0   1   8   15.60    7.00
   0   1  -8   14.90    5.80
   0   1  -8   11.20    6.80
   0   1   8   15.80    6.30
   0   1  -8   18.30    7.30
   0  -1  -8   11.10    6.70
   0  -1   8   17.90    5.80
   0  -1   8   11.40    6.70
   0  -1  -8   15.80    7.20
   0  -1  -8    9.20    5.60
   0  -1   8   12.30    6.40
   0   1  -9  198.78   20.70
   0   1  -9  169.38   17.00
   0   1   9  200.68   15.90
   0   1  -9  187.98   15.30
   0   1   9  194.08   17.50
   0  -1   9  196.48   17.70
   0  -1  -9  201.48   12.70
   0  -1   9  205.88   18.70
   0  -1  -9  187.58   18.50
   0  -1   9  198.58   14.90
   0  -1  -9  180.18   16.60
   0  -1  -9  195.48   14.60
   0   1  10  174.38   16.20
   0   1  10  163.28   17.80
   0   1 -10  231.98   19.60
   0   1 -10  185.38   15.70
   0   1 -10  161.58   18.70
   0  -1 -10  219.98   19.40
   0  -1  10  156.08   16.80
   0  -1 -10  200.78   17.70
   0  -1  10  156.38   14.50
   0  -1 -10  219.68   14.80
   0  -1  10  176.38   18.60
   0   1  11   12.20    7.50
   0   1  11    3.90    6.20
   0  -1  11    4.50    5.30
   0  -1  11    1.60    6.00
   0   1  13   34.90   10.10
   0   1 -13   60.09   13.10
   0   1 -13   65.09   12.80
   0  -1 -13   34.00    9.80
   0   1  14  107.29   19.90
   0   1  14  141.09   19.90
   0   1 -14  149.69   16.20
   0  -1  14  112.29   19.30
   0  -1  14   92.59   17.30
   0   2   0    1.00    1.60
   0   2   0    1.90    1.90
   0  -2   0    2.20    1.70
   0   2   2 1280.87   31.10
   0   2  -2 1275.17   36.00
   0   2   2 1271.77   30.50
   0   2  -2 1240.98   36.30
   0  -2  -2 1344.07   30.70
   0  -2   2 1221.98   36.00
   0  -2   2 1313.87   36.00
   0   2  -3 1647.24   47.50
   0   2   3 1725.13   40.80
   0   2   3 1750.02   46.00
   0   2  -3 1741.13   48.50
   0  -2  -3 1745.33   40.70
   0  -2   3 1732.33   47.10
   0  -2  -3 1792.72   41.30
   0  -2   3 1699.43   48.30
   0   2   4  985.20   31.10
   0   2  -4  954.50   31.00
   0   2  -4  948.71   32.90
   0   2   4 1021.10   26.70
   0  -2  -4  988.70   25.80
   0  -2  -4  962.70   26.30
   0  -2   4  988.60   31.40
   0  -2   4  969.30   33.20
   0  -2   4  921.11   33.20
   0   2  -5   58.79    8.00
   0   2  -5   57.49    8.20
   0   2   5   69.29    7.80
   0   2   5   59.09    5.60
   0   2  -5   63.09    7.50
   0  -2  -5   67.89    7.50
   0  -2  -5   71.09    6.10
   0  -2   5   60.79    7.60
   0  -2  -5   71.49    5.60
   0  -2   5   66.69    8.80
   0  -2  -5   69.39    6.40
   0  -2   5   70.29    8.80
   0   2  -6  533.75   24.70
   0   2  -6  533.15   22.70
   0   2  -6  542.85   25.70
   0   2   6  521.95   19.90
   0   2   6  518.55   23.80
   0  -2   6  568.24   26.00
   0  -2   6  542.75   23.40
   0  -2  -6  534.35   24.10
   0  -2  -6  522.35   18.50
   0  -2  -6  518.05   19.90
   0  -2  -6  530.85   19.90
   0  -2   6  557.14   28.30
   0   2   7  131.59   10.40
   0   2   7  144.49   13.20
   0   2  -7  155.18   13.40
   0   2  -7  160.78   12.90
   0   2  -7  146.79   13.80
   0  -2  -7  138.09   10.30
   0  -2  -7  137.19    9.40
   0  -2  -7  126.09   12.30
   0  -2   7  147.19   14.00
   0  -2  -7  144.89   11.00
   0  -2   7  140.99   14.10
   0  -2   7  145.49   12.30
   0   2  -8   67.49   10.60
   0   2   8   71.39    9.20
   0   2   8   94.79   12.10
   0   2  -8   90.39   12.40
   0   2  -8   86.69   12.20
   0  -2  -8   62.79   11.20
   0  -2  -8   78.49   11.00
   0  -2   8   71.09    9.80
   0  -2  -8   62.09    7.60
   0  -2  -8   79.69    9.60
   0  -2   8   76.29   12.30
   0  -2   8   71.19   11.40
   0   2   9  540.35   25.30
   0   2  -9  543.15   27.20
   0   2  -9  561.14   31.60
   0   2   9  547.25   29.90
   0  -2   9  555.44   32.30
   0  -2  -9  506.45   28.80
   0  -2  -9  516.25   22.30
   0  -2  -9  538.55   23.70
   0  -2   9  548.05   26.70
   0  -2  -9  554.34   26.00
   0  -2   9  562.04   31.10
   0   2 -10 1447.26   55.69
   0   2 -10 1440.26   55.49
   0   2  10 1454.85   49.80
   0   2  10 1488.75   56.69
   0   2 -10 1444.56   51.49
   0  -2  10 1516.95   52.29
   0  -2  10 1538.25   60.89
   0  -2 -10 1500.05   56.49
   0  -2 -10 1445.96   49.99
   0  -2 -10 1478.95   46.00
   0  -2  10 1504.45   57.99
   0  -2 -10 1477.05   47.30
   0   2  11   79.19   11.80
   0   2 -11  119.29   16.40
   0   2  11   63.69   12.90
   0  -2 -11  104.99   10.20
   0  -2  11   78.59   12.10
   0  -2  11   76.69   17.20
   0  -2  11   74.69   15.70
   0   2 -12  100.29   13.50
   0   2  12   66.29   12.40
   0   2  12   81.09   14.90
   0  -2 -12   72.29   11.00
   0  -2  12   97.89   17.50
   0  -2  12   70.19   14.30
   0  -2  12   82.79   12.20
   0   2 -13   98.09   14.30
   0   2  13  116.99   16.20
   0  -2  13   88.99   14.70
   0  -2  13  113.19   12.80
   0  -2 -13  109.89   21.40
   0   2  14   99.89   12.80
   0   2 -14   99.09   17.40
   0  -2  14   71.29   13.80
   0  -2 -14   81.89   15.50
   0   3   0 3912.71   91.99
   0   3   0 3900.41   93.29
   0  -3   0 4060.69   92.49
   0   3   1 1178.38   30.90
   0   3   1 1221.88   32.60
   0   3  -1 1152.68   33.10
   0  -3  -1 1180.18   29.00
   0  -3  -1 1144.29   31.00
   0  -3   1 1181.48   33.60
   0   3   2   59.89    5.00
   0   3  -2   61.29    6.40
   0   3   2   66.89    4.50
   0  -3  -2   66.79    4.40
   0  -3   2   62.79    6.80
   0  -3   2   61.99    6.70
   0   3  -3 2074.09   59.59
   0   3  -3 2191.78   60.79
   0   3   3 2199.48   51.79
   0   3   3 2248.28   52.59
   0  -3   3 2225.38   61.09
   0  -3  -3 2190.78   51.79
   0  -3   3 2259.27   60.39
   0   3  -4 1565.94   56.29
   0   3   4 1629.84   46.20
   0   3  -4 1621.24   51.09
   0  -3   4 1629.54   49.99
   0  -3  -4 1639.74   39.60
   0  -3   4 1593.84   48.10
   0   3   5   36.70    6.30
   0   3  -5   40.30    8.00
   0   3  -5   42.50    7.80
   0  -3   5   49.90    7.60
   0  -3   5   41.70    8.70
   0  -3  -5   48.40    4.20
   0   3  -6   77.49   10.50
   0   3  -6   61.19   10.10
   0   3   6   79.69    9.40
   0  -3  -6   72.49    6.70
   0  -3   6   65.79    9.80
   0  -3  -6   81.09    6.10
   0  -3   6   68.09    9.30
   0   3   7   19.80    6.50
   0   3  -7   21.20    7.70
   0   3  -7   19.30    7.00
   0   3   7   27.90    5.60
   0  -3  -7   28.00    5.00
   0  -3   7   24.00    6.90
   0  -3  -7   23.30    5.80
   0  -3  -7   25.30    6.00
   0  -3   7   17.90    6.50
   0   3   8   67.89    8.50
   0   3   8   80.89   11.30
   0   3  -8   68.29   13.30
   0   3  -8   88.49   13.20
   0  -3   8   82.89   13.00
   0  -3   8   77.79   11.00
   0  -3  -8   72.19   10.60
   0  -3  -8   70.99    9.60
   0  -3  -8   77.59    7.30
   0   3   9  987.00   41.70
   0   3  -9 1002.60   43.00
   0   3   9 1000.50   35.00
   0  -3   9 1038.00   45.70
   0  -3  -9  992.90   31.90
   0  -3   9 1020.70   40.80
   0  -3  -9  952.90   34.70
   0   3  10  621.14   33.30
   0  -3 -10  619.54   26.50
   0  -3 -10  561.94   23.40
   0  -3  10  654.13   36.10
   0  -3  10  639.24   31.90
   0   3  11   61.49   13.30
   0  -3  11   67.59   11.00
   0  -3  11   64.39   14.50
   0  -3 -11   71.89    9.10
   0   3  12  356.26   27.50
   0  -3  12  388.86   24.90
   0  -3  12  358.56   29.40
   0  -3 -12  361.26   19.00
   0   3 -13   32.30   11.60
   0  -3 -13   36.90    8.90
   0  -3  13   36.10   11.60
   0   4   0  722.23   22.60
   0   4   0  695.53   23.50
   0  -4   0  755.02   23.00
   0   4  -1  258.17   13.50
   0   4   1  246.48   11.30
   0   4  -1  249.08   12.40
   0   4   1  265.47   12.80
   0  -4   1  240.88   12.60
   0  -4  -1  249.48    9.70
   0   4   2  259.67   11.90
   0   4   2  238.28   10.20
   0   4  -2  239.38   13.40
   0  -4   2  242.38   13.80
   0   4   3  741.03   22.80
   0   4   3  726.03   21.00
   0   4  -3  774.82   37.00
   0  -4   3  763.02   29.30
   0  -4   3  735.03   28.80
   0  -4  -3  735.83   21.30
   0   4  -4 1666.23   51.89
   0   4   4 1661.43   48.40
   0   4  -4 1602.34   52.09
   0  -4   4 1696.23   52.29
   0  -4   4 1692.43   53.09
   0  -4  -4 1703.33   41.30
   0   4   5  244.48   14.70
   0   4  -5  222.88   16.50
   0   4  -5  216.38   16.40
   0  -4   5  236.58   16.30
   0  -4   5  245.18   17.30
   0   4  -6  209.08   16.90
   0   4   6  226.58   15.30
   0   4  -6  205.08   17.30
   0  -4   6  202.08   17.00
   0  -4   6  218.98   16.50
   0   4   7  441.86   28.10
   0   4  -7  455.45   26.80
   0   4  -7  478.15   26.20
   0  -4   7  484.55   25.60
   0  -4  -7  444.46   15.60
   0  -4   7  453.85   27.20
   0   4   8  553.74   27.60
   0   4  -8  469.75   35.20
   0  -4   8  496.95   29.90
   0  -4  -8  508.85   22.90
   0  -4  -8  529.85   18.20
   0  -4   8  535.25   28.10
   0   4   9   65.59   11.80
   0  -4  -9   84.69   12.00
   0  -4   9   77.79   12.00
   0  -4   9   75.29   13.80
   0   4  10   73.39   13.20
   0  -4 -10  108.49   12.10
   0  -4  10   59.89   13.30
   0  -4  10   87.99   12.50
   0   4  11  269.17   22.90
   0  -4  11  276.57   22.50
   0  -4  11  273.27   30.90
   0  -4 -11  338.47   14.40
   0   4  12   25.30   10.90
   0   4 -12   21.80    9.70
   0  -4  12   30.40   10.00
   0  -4  12   14.50    9.70
   0   4  13  155.78   15.20
   0   4 -13  212.98   20.20
   0  -4 -13  196.28   10.70
   0   5   0   64.89    6.40
   0   5   0   74.49    7.70
   0   5   0   64.79   12.40
   0  -5   0   68.29    6.80
   0   5   1 1337.67   38.50
   0   5   1 1313.67   40.60
   0   5  -1 1351.16   40.20
   0   5  -1 1321.17   41.30
   0  -5  -1 1352.56   35.80
   0  -5   1 1343.57   40.60
   0   5   2   96.09    7.10
   0   5   2   79.49    7.80
   0   5  -2   75.59    9.90
   0   5  -2   86.79    9.20
   0  -5   2   88.59    9.10
   0   5   3   39.70    6.60
   0   5  -3   33.30    7.60
   0   5  -3   29.70    7.30
   0   5  -3   43.20    8.70
   0   5   3   24.60    4.50
   0  -5   3   32.00    6.90
   0  -5   3   24.40    7.00
   0   5  -4  637.84   28.90
   0   5   4  648.34   21.50
   0   5  -4  645.24   28.50
   0   5  -4  618.94   28.60
   0  -5   4  676.13   29.80
   0  -5  -4  678.93   20.20
   0  -5   4  640.54   29.20
   0   5   5  437.06   21.00
   0   5  -5  437.16   24.10
   0   5  -5  398.36   23.60
   0  -5   5  421.46   23.80
   0  -5   5  425.46   24.50
   0   5   6   13.00    5.90
   0   5  -6   20.20    8.80
   0  -5   6   10.30    6.20
   0  -5   6    8.60    5.90
   0   5   7  323.87   20.20
   0   5  -7  321.87   23.50
   0   5  -7  353.26   23.40
   0  -5   7  325.67   22.30
   0  -5   7  349.47   24.50
   0   5  -8  810.62   40.60
   0   5   8  778.72   34.80
   0  -5   8  760.22   39.80
   0  -5   8  826.82   38.00
   0  -5  -9  125.79   11.30
   0  -5   9  100.69   14.30
   0  -5   9   89.59   15.80
   0   5  10   25.40    8.40
   0   5 -10   33.50   11.10
   0  -5  10   15.70    7.40
   0  -5  10   13.00    8.70
   0   5 -11   75.09   15.90
   0   5  11   84.39   13.70
   0  -5  11   88.79   17.00
   0  -5  11   76.09   15.10
   0   5 -12   59.69   14.50
   0  -5  12   42.70   15.20
   0  -5  12   55.79   11.10
   0   5  13  105.99   14.90
   0  -5  13  123.29   16.30
   0  -5  13   77.99   12.00
   0   6   0  601.34   26.60
   0   6   0  654.03   25.70
   0   6   0  653.83   23.40
   0  -6   0  628.34   23.40
   0   6  -1  584.94   26.70
   0   6   1  583.94   24.80
   0   6   1  633.34   23.60
   0   6  -1  596.74   24.00
   0   6  -1  591.24   25.30
   0  -6  -1  604.34   20.50
   0  -6   1  576.44   24.20
   0   6   2    3.10    4.10
   0   6   2    4.80    3.50
   0   6  -2    7.30    4.80
   0  -6   2    5.10    4.50
   0   6  -3  463.15   24.30
   0   6   3  460.25   17.60
   0   6  -3  488.15   23.70
   0   6   3  439.36   19.60
   0   6  -3  497.45   25.10
   0  -6   3  444.86   25.10
   0  -6   3  455.85   25.60
   0   6   4  868.11   25.50
   0   6  -4  853.61   36.60
   0   6  -4  842.32   35.70
   0   6   4  869.51   28.50
   0  -6   4  845.92   37.00
   0  -6   4  863.21   36.50
   0   6  -5  454.85   25.70
   0   6  -5  416.46   25.90
   0   6   5  434.96   22.10
   0   6  -5  430.16   25.80
   0  -6   5  406.46   25.20
   0  -6   5  453.85   26.60
   0   6  -6 1165.38   47.90
   0   6  -6 1225.18   47.80
   0   6  -6 1227.08   47.90
   0   6  -6 1206.48   49.10
   0  -6   6 1215.28   49.40
   0  -6   6 1200.08   48.20
   0   6  -7  798.62   38.20
   0   6  -7  817.82   39.70
   0  -6   7  767.62   37.60
   0  -6   7  771.62   39.70
   0   6   8  131.79   14.90
   0   6  -8  140.29   18.30
   0  -6   8  155.88   18.90
   0  -6   8  158.48   17.40
   0   6  -9  656.23   38.10
   0   6   9  659.13   32.80
   0  -6  -9  677.53   29.20
   0  -6   9  653.93   39.50
   0  -6   9  704.73   37.50
   0   6  10  203.08   18.20
   0   6 -10  194.58   22.90
   0  -6  10  204.78   23.60
   0  -6  10  201.38   23.50
   0   6 -11   88.29   13.80
   0   6 -12  103.69   19.30
   0  -6  12   68.79   18.80
   0  -6  12  108.89   14.30
   0   7   0   -1.20    4.90
   0   7   0    4.70    4.10
   0  -7   0    6.00    4.30
   0   7  -1  391.36   23.10
   0   7  -1  404.26   21.90
   0   7  -1  436.16   20.80
   0   7   1  429.66   22.10
   0   7   1  438.56   20.50
   0  -7   1  415.26   20.80
   0  -7  -1  438.66   17.60
   0   7  -2   37.70    9.00
   0   7   2   46.60    7.30
   0   7   2   45.20    8.80
   0   7  -2   44.30    9.60
   0   7  -2   44.30    8.90
   0  -7   2   43.70    9.90
   0   7  -3  290.97   20.10
   0   7  -3  273.07   25.40
   0   7  -3  309.87   21.30
   0   7   3  291.57   16.90
   0   7   3  305.37   15.00
   0  -7   3  315.97   22.40
   0  -7   3  311.27   20.40
   0   7   4   78.09    7.30
   0   7  -4   63.29   12.50
   0   7  -4   73.09   13.70
   0   7  -4   69.59   13.00
   0  -7   4   71.89   12.10
   0  -7   4   77.69   12.30
   0   7   5  456.15   28.40
   0   7  -5  472.65   28.40
   0   7  -5  526.55   29.40
   0   7  -5  448.86   27.40
   0  -7   5  504.55   29.80
   0  -7   5  459.95   28.30
   0   7   6  551.84   27.30
   0   7  -6  576.84   31.80
   0   7  -6  566.14   32.20
   0  -7   6  565.74   32.60
   0  -7   6  589.44   33.50
   0   7  -7   31.20   11.00
   0   7   7   32.80    8.50
   0  -7   7   25.30    9.10
   0  -7   7   23.80   10.00
   0   7  -8  385.66   32.70
   0   7   8  352.76   23.30
   0  -7   8  386.26   28.40
   0  -7   8  402.66   29.80
   0   7   9   74.59   13.50
   0   7  -9   66.29   15.70
   0  -7   9   83.39   15.50
   0  -7   9   96.29   16.90
   0   7  10  113.79   12.30
   0   7 -11  142.99   20.20
   0   7  11   88.29   14.90
   0  -7  11  124.89   21.00
   0   8   0   85.29   12.00
   0   8   0   80.89   11.10
   0  -8   0   66.89    9.60
   0   8   1  138.89   14.10
   0   8   1  129.79   13.00
   0   8  -1  119.99   14.50
   0  -8   1  120.79   12.50
   0   8  -2   90.09   13.00
   0   8  -2   81.09   12.40
   0   8   2  121.09   12.80
   0   8   2   99.19   10.70
   0  -8   2   94.29   12.20
   0  -8   2   97.59   14.50
   0   8  -3  183.68   17.80
   0   8  -3  225.28   22.20
   0   8  -3  203.68   18.30
   0   8   3  171.28   12.40
   0  -8   3  187.48   17.00
   0  -8   3  181.38   19.00
   0   8  -4  284.17   21.00
   0   8  -4  211.88   19.80
   0   8   4  225.48   12.70
   0   8  -4  250.47   19.70
   0  -8   4  223.38   21.00
   0  -8   4  228.08   19.80
   0   8  -5  213.18   20.50
   0   8   5  221.28   17.40
   0  -8   5  223.78   21.50
   0  -8   5  214.08   20.40
   0   8   6  197.28   17.00
   0   8  -6  178.08   20.60
   0  -8   6  210.18   20.80
   0  -8   6  206.38   21.10
   0   8   7   58.89   11.20
   0   8  -7   70.79   14.80
   0  -8   7   64.19   15.90
   0  -8   7   62.39   15.00
   0   8   8   81.59   14.70
   0   8  -8  129.09   17.60
   0  -8   8  102.99   18.60
   0  -8   8  116.79   17.00
   0   8  -9  157.98   21.70
   0   8   9  229.58   16.50
   0  -8   9  186.48   20.90
   0   8  10  229.48   18.70
   0   8 -10  164.28   22.60
   0  -8  10  178.58   22.00
   0  -8  10  206.68   22.20
   0   9   0  136.49   13.40
   0  -9   0   92.99   11.30
   0   9   1  263.47   18.20
   0   9   1  299.07   21.00
   0   9  -1  307.37   21.10
   0  -9   1  302.77   24.60
   0  -9   1  292.27   19.30
   0   9  -2  294.87   23.90
   0   9   2  348.07   25.90
   0   9   2  350.16   19.50
   0  -9   2  303.47   21.10
   0  -9   2  310.37   25.60
   0   9   3   21.80    7.00
   0   9   3   33.60   11.30
   0  -9   3    9.60    8.90
   0  -9   3    6.10    7.20
   0   9   4  403.56   18.20
   0   9  -4  405.16   27.30
   0  -9   4  409.66   27.30
   0   9   5  155.08   16.00
   0   9  -5  153.28   19.60
   0  -9   5  143.99   19.50
   0  -9   5  152.68   18.70
   0   9   6   68.99   10.50
   0  -9   6   61.99   12.30
   0   9  -7   27.90   11.90
   0  -9   7   14.50    9.40
   0  -9   7   28.60   11.00
   0   9  -8   43.20   14.10
   0  -9   8   20.40   12.10
   0  -9   8   38.90   11.70
   0   9  -9  160.48   18.70
   0   9   9  115.79   13.70
   0  -9   9  153.98   19.20
   0  10   0    3.60    6.80
   0 -10   0   -3.60    6.40
   0  10   1  127.69   13.80
   0  10  -1  138.09   15.40
   0 -10   1  164.28   15.00
   0 -10   1  128.79   18.70
   0  10   3   63.09   10.90
   0  10  -3   53.99   13.10
   0 -10   3   75.19   13.20
   0 -10   3   34.90   12.50
   0  10  -4  294.37   27.30
   0  10   4  252.17   15.40
   0 -10   4  237.28   22.10
   0 -10   4  232.08   24.90
   0  10   5   39.70   10.60
   0 -10   5   17.60   10.00
   0 -10   5   17.90    8.60
   0  10  -6   72.79   12.60
   0 -10   6   58.59   12.10
   0  10  -7  105.29   17.10
   0 -10   7   82.79   16.60
   0 -10   7   64.19   14.40
   0  11   0   11.20    7.70
   0 -11   0   11.80   11.10
   0  11   1   89.29   12.50
   0  11  -1   86.99   13.50
   0 -11   1   77.09   18.40
   0 -11  -1   70.79   18.20
   0  11   2  205.88   16.40
   0 -11   2  197.58   20.60
   0  11  -3   68.79   12.00
   0 -11   3   50.59   12.80
   0  11  -4   34.30   11.10
   0 -11   4   19.10   10.80
   0 -11   4   29.00   11.90
   1   0 -14  129.49   14.60
  -1   0  13    1.90    6.90
  -1   0  13   12.00    8.60
  -1   0  12  495.05   30.30
  -1   0  12  450.25   31.70
   1   0 -12  483.55   24.90
  -1   0  11    5.80    5.90
   1   0 -11   15.10    7.00
   1   0 -11   20.60    6.60
  -1   0  11   -0.20    6.20
   1   0 -11   -6.60    5.50
   1   0 -10  706.63   36.30
   1   0 -10  704.73   32.80
   1   0 -10  699.93   28.70
  -1   0  10  714.03   34.10
  -1   0  10  713.83   36.10
   1   0 -10  715.83   30.90
  -1   0   9   -3.70    4.30
   1   0  -9    4.70    4.70
  -1   0   9    6.70    5.50
  -1   0   9   -2.10    4.50
   1   0  -9    0.70    5.00
   1   0  -8  863.41   34.40
  -1   0   8  888.11   32.60
   1   0  -8  902.11   36.90
  -1   0   8  951.50   47.30
  -1   0   8  898.31   37.30
   1   0  -8  899.11   32.80
  -1   0   7   -0.80    4.10
   1   0  -7   -2.10    3.50
   1   0  -7    0.00    3.30
   1   0  -7    5.80    4.20
  -1   0   7   -2.20    2.50
  -1   0   7    0.70    3.80
   1   0  -6 5406.46  144.09
   1   0  -6 5334.77  128.29
  -1   0   6 5270.27  132.49
   1   0  -6 5193.08  129.69
  -1   0   6 5340.37  128.49
  -1   0   6 5375.76  130.79
   1   0  -5   -0.80    2.60
  -1   0   5    1.10    2.50
   1   0  -5   -2.00    2.20
  -1   0   5    2.10    2.30
  -1   0   5    3.30    2.80
   1   0  -5   -0.50    1.80
   1   0  -4 1592.84   42.70
   1   0  -4 1644.34   44.70
   1   0  -4 1550.14   43.30
  -1   0   4 1602.54   42.90
  -1   0   4 1565.94   43.60
  -1   0   4 1604.84   44.60
   1   0  -3    2.20    2.20
  -1   0   3    4.20    2.60
  -1   0   3    3.60    2.40
  -1   0   3    4.30    2.30
   1   0  -3    4.80    2.30
   1   0  -3    2.40    2.30
   1   0   1    3.50    1.60
   1   0   1    4.50    1.00
   1   0   2 3555.84   82.59
   1   0   2 3368.56   83.59
  -1   0  -2 3631.64   80.29
   1   0   2 3581.94   79.79
  -1   0  -2 3404.56   83.69
  -1   0  -2 3525.25   82.59
  -1   0  -2 3556.44   79.79
  -1   0  -3    1.10    2.50
   1   0   3   -1.10    2.10
  -1   0  -3   -0.80    1.40
   1   0   3   -1.50    1.90
   1   0   3    1.60    1.60
  -1   0  -3    1.10    2.20
   1   0   4 2927.31   77.19
   1   0   4 2962.00   71.09
  -1   0  -4 2922.21   76.69
   1   0   4 3001.90   75.19
  -1   0  -4 2989.10   71.09
  -1   0  -5    3.80    3.10
   1   0   5    0.50    2.70
   1   0   5    0.30    2.10
  -1   0  -5    1.30    3.30
   1   0   5   -1.30    2.90
  -1   0  -5    1.30    2.10
  -1   0  -6 2305.57   75.09
   1   0   6 2172.48   58.59
   1   0   6 2266.87   63.99
  -1   0  -6 2279.97   58.99
  -1   0  -7    2.00    4.30
  -1   0  -7   -1.50    4.20
   1   0   7    0.40    3.30
   1   0   7   -0.20    3.40
  -1   0  -7   -3.60    2.90
   1   0   7   -2.10    2.50
   1   0   8 1821.32   61.79
   1   0   8 1846.82   52.49
  -1   0  -8 1768.92   57.39
  -1   0  -8 1759.22   57.09
  -1   0  -8 1799.72   60.39
   1   0   8 1781.72   57.69
   1   0   9    3.60    5.70
   1   0   9    5.10    6.00
  -1   0  -9    6.80   10.90
  -1   0  -9    3.30    5.90
   1   0   9    0.00    3.60
  -1   0  -9    4.80    4.40
  -1   0  -9    6.10    3.80
   1   0  10   98.19   14.60
   1   0  10   94.39   13.40
  -1   0 -10   88.99   11.40
  -1   0 -10  119.79   16.20
  -1   0 -10   85.29   17.20
   1   0  11   -1.60    5.60
   1   0  11    5.20    5.90
  -1   0 -12  314.67   21.40
   1   0  12  328.07   23.80
   1   0  12  303.17   34.70
  -1   0 -12  398.46   22.70
   1   0  13   11.40    7.20
   1   0  14  265.17   21.00
   1   0  14  195.78   24.10
   1   1 -14   36.90    9.40
  -1   1  14   31.90   11.10
   1   1 -14   31.20    9.00
  -1  -1  14   13.20    8.50
   1   1 -13  153.98   17.90
   1   1 -13  178.08   20.40
  -1   1  13  117.79   22.30
  -1   1  13  162.38   17.10
  -1  -1  13  182.28   23.50
   1  -1 -13  162.68   16.40
   1   1 -12  133.89   17.30
  -1   1  12  152.98   18.20
  -1   1  12  155.18   17.00
  -1  -1  12  146.39   19.00
   1  -1 -12  183.98   12.50
  -1  -1  12  174.08   17.30
  -1  -1  12  148.19   15.70
  -1   1  11  326.67   22.40
  -1   1  11  338.87   25.30
   1   1 -11  350.66   22.80
   1  -1 -11  319.27   26.60
  -1  -1  11  333.37   21.70
  -1  -1  11  317.37   26.00
   1  -1 -11  378.26   21.50
   1  -1 -11  339.27   16.90
  -1  -1  11  328.47   24.50
   1  -1 -11  356.26   23.40
   1   1 -10  763.62   38.60
  -1   1  10  721.43   35.80
   1   1 -10  719.73   32.20
   1   1 -10  685.33   36.40
  -1   1  10  740.13   32.90
   1  -1 -10  681.53   25.80
   1  -1 -10  664.73   31.50
  -1  -1  10  726.23   37.70
   1  -1 -10  569.84   43.30
  -1  -1  10  750.12   32.40
  -1  -1  10  728.13   35.80
   1  -1 -10  728.03   30.90
  -1   1   9  366.16   21.00
   1   1  -9  351.96   20.90
   1   1  -9  348.97   24.00
  -1   1   9  368.36   23.30
   1   1  -9  375.86   23.10
   1  -1  -9  365.66   21.20
  -1  -1   9  349.47   22.90
  -1  -1   9  357.86   24.20
  -1  -1   9  367.46   20.80
   1  -1  -9  361.46   16.70
   1  -1  -9  348.77   23.10
   1  -1  -9  367.46   20.00
  -1   1   8   15.60    6.20
   1   1  -8   18.00    6.90
   1   1  -8   28.30    7.20
  -1   1   8   28.00    7.00
   1  -1  -8   20.90    5.10
   1  -1  -8   24.70    7.40
  -1  -1   8   21.20    7.60
   1  -1  -8   27.10    6.70
  -1  -1   8   22.30    7.00
   1  -1  -8   21.90    7.10
  -1  -1   8   25.10    6.60
   1   1  -7   81.99    9.40
  -1   1   7   79.99    8.90
   1   1  -7   80.49   10.40
   1   1  -7   79.59   10.30
  -1   1   7   77.39    9.50
   1  -1  -7   73.59    8.10
   1  -1  -7   82.29    7.20
  -1  -1   7   87.69   10.60
   1  -1  -7   73.19    9.20
  -1  -1   7   83.89   13.00
   1  -1  -7   74.09    9.30
  -1  -1   7   84.29    9.10
   1   1  -6  594.54   23.60
  -1   1   6  617.14   25.40
   1   1  -6  603.64   26.20
   1   1  -6  574.34   24.90
  -1   1   6  607.04   23.30
  -1  -1   6  631.94   27.10
   1  -1  -6  613.44   22.80
  -1  -1   6  640.24   24.50
  -1  -1   6  633.04   26.40
   1  -1  -6  600.04   19.80
   1  -1  -6  597.14   22.90
   1  -1  -6  600.94   24.70
  -1   1   5   24.60    4.90
  -1   1   5   32.30    5.80
  -1   1   5   32.10    5.90
   1  -1  -5   33.40    5.00
   1  -1  -5   40.80    5.40
   1  -1  -5   42.30    4.50
   1   1  -4  274.97   14.10
  -1   1   4  284.77   11.90
  -1   1   4  281.87   13.00
   1   1  -4  285.07   13.10
   1   1  -4  285.97   13.90
   1  -1  -4  266.77   11.60
   1  -1  -4  285.77   12.30
  -1  -1   4  285.17   13.40
  -1  -1   4  273.97   14.40
   1  -1  -4  278.87   12.80
  -1  -1   4  276.97   14.10
   1  -1  -4  276.97   10.30
   1   1  -3 1557.94   41.60
  -1   1   3 1573.74   38.20
  -1   1   3 1574.94   39.50
  -1   1   3 1571.74   40.60
   1   1  -3 1539.75   42.40
   1   1  -3 1586.04   43.20
   1  -1  -3 1582.54   38.30
   1  -1  -3 1560.54   40.40
  -1  -1   3 1505.15   42.50
  -1  -1   3 1584.44   42.10
   1  -1  -3 1610.04   39.50
   1   1  -2 4814.02  113.99
  -1   1   2 4891.61  111.89
   1   1  -2 4751.32  113.99
   1   1  -2 5034.50  114.89
  -1   1   2 5077.89  111.69
   1  -1  -2 4998.10  111.89
   1  -1  -2 5091.69  111.69
  -1  -1   2 5020.00  114.99
  -1   1   1  522.25   14.40
   1   1  -1  492.75   15.70
   1   1  -1  520.55   15.40
   1   1  -1  480.15   15.90
  -1  -1   1  525.95   15.40
  -1  -1   1  515.55   15.50
  -1  -1   1  512.35   16.90
   1   1   0  424.56   14.40
  -1   1   0  390.06   11.80
  -1   1  -1 3082.09   70.49
  -1   1  -1 2964.70   70.29
   1   1   1 3027.70   68.69
  -1   1  -1 2992.40   70.69
  -1  -1  -1 2995.20   68.69
   1  -1   1 2910.31   70.29
   1  -1   1 2966.30   70.79
  -1   1  -2 1865.41   47.60
  -1   1  -2 1770.92   47.40
   1   1   2 1853.61   47.40
   1   1   2 1820.52   43.90
  -1  -1  -2 1904.91   44.60
   1  -1   2 1816.32   47.40
   1  -1   2 1856.61   45.60
   1  -1   2 1773.32   47.50
  -1   1  -3 1165.08   35.70
   1   1   3 1162.38   35.00
  -1   1  -3 1201.88   32.80
   1   1   3 1196.48   32.10
  -1   1  -3 1197.38   35.10
   1  -1   3 1228.68   35.70
  -1  -1  -3 1215.88   35.30
   1  -1   3 1164.08   35.80
   1  -1   3 1206.38   32.90
  -1  -1  -3 1202.48   32.00
  -1  -1  -3 1226.78   30.10
  -1  -1  -3 1222.28   32.10
   1   1   4 3267.57   84.79
  -1   1  -4 3373.16   85.89
  -1   1  -4 3348.96   80.99
   1   1   4 3334.57   80.99
  -1   1  -4 3290.37   84.09
   1  -1   4 3362.16   81.29
  -1  -1  -4 3298.87   84.49
   1  -1   4 3342.07   84.99
  -1  -1  -4 3224.98   77.79
  -1  -1  -4 3356.26   80.79
  -1   1  -5  414.66   21.20
  -1   1  -5  441.66   17.60
   1   1   5  433.26   20.50
   1   1   5  436.66   18.00
  -1   1  -5  413.76   19.90
   1  -1   5  450.85   17.90
  -1  -1  -5  389.56   17.20
   1  -1   5  452.15   21.40
   1  -1   5  460.85   20.90
  -1  -1  -5  455.25   15.70
   1   1   6   94.69   10.50
   1   1   6   86.39    8.70
  -1   1  -6   79.39    9.80
  -1   1  -6   88.19    9.80
  -1   1  -6   92.89    8.40
  -1  -1  -6   99.59    9.30
  -1  -1  -6   92.09   10.30
   1  -1   6   85.99    9.80
  -1  -1  -6   86.09    7.10
   1  -1   6   96.69   10.80
   1  -1   6   92.99    8.40
   1   1   7  298.87   19.30
  -1   1  -7  276.47   16.60
  -1   1  -7  260.87   18.80
   1   1   7  288.47   16.70
   1  -1   7  274.57   19.50
  -1  -1  -7  278.67   16.60
  -1  -1  -7  282.37   14.10
   1  -1   7  299.87   19.00
   1  -1   7  291.57   15.80
  -1  -1  -7  284.07   18.70
   1   1   8 1371.06   46.00
  -1   1  -8 1337.27   48.30
   1   1   8 1389.66   50.79
  -1   1  -8 1380.76   43.90
  -1  -1  -8 1385.66   41.40
   1  -1   8 1366.36   49.50
   1  -1   8 1339.07   51.29
   1  -1   8 1360.66   43.70
  -1  -1  -8 1325.27   45.30
  -1   1  -9  924.71   42.00
  -1   1  -9  914.51   40.00
   1   1   9  956.00   42.20
   1   1   9  947.51   37.70
  -1   1  -9  911.11   34.90
   1  -1   9  981.50   44.90
  -1  -1  -9  898.71   37.20
  -1  -1  -9  993.30   33.80
   1  -1   9  888.61   42.10
   1  -1   9  933.41   40.50
  -1  -1  -9  856.91   42.90
  -1   1 -10  595.74   25.70
  -1   1 -10  591.74   27.80
  -1   1 -10  611.14   32.40
   1   1  10  601.04   33.80
   1   1  10  596.94   30.00
  -1  -1 -10  603.74   29.70
   1  -1  10  598.44   27.30
   1  -1  10  585.84   34.60
  -1  -1 -10  583.44   25.30
   1  -1  10  559.04   31.90
  -1  -1 -10  562.74   33.50
   1   1  11   15.00    8.10
   1   1  11   23.20    8.90
   1  -1  11   19.30    9.40
   1  -1  11   21.60    7.50
   1  -1  11   30.40    9.10
   1   1  12  158.48   22.10
   1   1  12  178.28   17.40
   1  -1  12  184.28   21.00
  -1  -1 -12  161.68   16.40
   1  -1  12  183.08   19.00
   1  -1  12  162.68   15.70
   1   1  13   98.99   15.40
   1   1  13   98.59   12.50
   1  -1  13   79.69   17.60
   1  -1  13   59.89   18.40
   1   1  14  118.59   15.50
  -1   1 -14  163.98   21.10
   1   1  14  120.79   19.20
   1  -1  14   85.39   15.80
   1  -1  14  113.19   16.70
   1   2 -14  102.99   18.60
  -1   2  14  150.18   15.60
  -1  -2  14  160.88   18.00
  -1  -2  14  117.29   15.20
   1  -2 -14  105.29   14.30
  -1   2  13   27.90   13.60
   1   2 -13   44.00   12.90
   1  -2 -13   81.59    9.90
  -1  -2  13   37.60    9.50
   1  -2 -13   59.19   10.00
  -1   2  12  153.08   18.70
   1   2 -12  140.79   17.00
  -1  -2  12  145.69   15.30
  -1  -2  12  147.09   18.20
   1  -2 -12  159.08   12.80
   1  -2 -12  150.98   13.90
   1   2 -11   74.39   13.80
  -1   2  11   51.89   11.80
   1  -2 -11   50.19   13.00
   1  -2 -11   64.59   10.50
  -1  -2  11   54.29   12.90
  -1  -2  11   40.30   10.40
   1   2 -10  757.92   33.80
   1   2 -10  836.32   38.30
   1   2 -10  675.73   35.70
  -1   2  10  727.33   35.80
  -1   2  10  762.42   32.30
  -1  -2  10  769.72   34.30
   1  -2 -10  765.32   31.20
   1  -2 -10  708.13   31.20
   1  -2 -10  693.13   35.80
  -1  -2  10  719.23   37.10
   1   2  -9 1322.77   59.39
  -1   2   9 1272.17   43.10
   1   2  -9 1265.87   49.40
  -1   2   9 1227.48   47.00
   1   2  -9 1214.08   44.60
  -1  -2   9 1227.28   45.20
   1  -2  -9 1196.18   46.10
  -1  -2   9 1251.47   49.40
  -1  -2   9 1289.07   51.49
   1  -2  -9 1192.68   41.70
   1  -2  -9 1329.67   42.80
  -1   2   8   19.90    7.40
   1   2  -8   15.50    6.30
   1   2  -8   15.80    7.10
  -1   2   8   14.70    5.40
   1   2  -8   12.90    6.20
  -1  -2   8   22.50    8.10
  -1  -2   8   17.40    6.30
  -1  -2   8   18.20    7.40
   1  -2  -8   13.70    5.90
   1  -2  -8   15.70    5.60
   1   2  -7 1152.78   43.00
  -1   2   7 1139.29   39.80
   1   2  -7 1103.99   38.80
   1   2  -7 1084.19   40.80
  -1   2   7 1135.19   36.00
   1  -2  -7 1069.79   35.00
   1  -2  -7 1114.19   36.40
   1  -2  -7 1080.59   38.70
  -1  -2   7 1213.18   40.50
  -1  -2   7 1141.49   42.50
  -1  -2   7 1164.38   43.80
   1   2  -6  127.99   12.20
   1   2  -6  116.19   10.50
   1   2  -6  132.69   12.10
  -1   2   6  129.19   10.70
  -1   2   6  133.99    9.20
  -1  -2   6  122.89   12.00
   1  -2  -6  129.09    9.60
   1  -2  -6  132.59    9.20
  -1  -2   6  141.19   11.50
   1  -2  -6  130.69   10.70
   1   2  -5 1793.12   56.49
   1   2  -5 1762.42   54.69
   1   2  -5 1732.43   50.69
  -1   2   5 1785.72   49.90
  -1  -2   5 1790.72   51.59
   1  -2  -5 1718.63   45.90
  -1  -2   5 1769.82   53.49
   1  -2  -5 1804.02   49.80
  -1   2   4 1020.10   30.50
   1   2  -4 1029.60   33.50
   1   2  -4  976.70   33.70
   1   2  -4 1003.60   32.00
   1  -2  -4 1056.59   30.70
   1  -2  -4  981.90   27.30
  -1  -2   4  997.30   33.70
  -1  -2   4 1052.19   33.00
   1   2  -3  310.17   14.80
   1   2  -3  308.67   14.30
  -1   2   3  298.67   10.40
  -1   2   3  295.77   11.70
   1   2  -3  288.97   13.60
  -1  -2   3  309.57   14.60
   1  -2  -3  308.07   10.60
  -1  -2   3  310.27   14.10
   1  -2  -3  281.37    9.60
   1   2  -2  232.58   11.30
  -1   2   2  249.88    9.50
   1   2  -2  241.08   11.50
  -1  -2   2  245.08   11.70
  -1  -2   2  254.37   11.80
   1  -2  -2  265.37    9.90
   1   2  -1 2157.18   54.99
   1   2  -1 2244.88   54.89
  -1   2   1 2222.08   54.39
   1  -2  -1 2267.77   54.59
  -1  -2   1 2296.27   56.09
  -1  -2   1 2157.88   55.29
  -1  -2   1 2343.07   55.29
   1   2   0 6982.20  157.18
  -1   2   0 6745.83  158.28
   1   2   0 6937.81  155.68
  -1  -2   0 7140.29  157.38
   1  -2   0 6990.20  157.18
  -1   2  -1  417.46   15.00
   1   2   1  432.06   13.60
  -1   2  -1  430.66   15.50
  -1   2  -1  417.56   15.80
   1  -2   1  430.36   15.60
  -1  -2  -1  438.86   13.70
   1   2   2  953.20   25.20
  -1   2  -2  903.51   28.70
   1  -2   2  950.10   29.40
   1  -2   2  945.31   29.50
  -1  -2  -2  978.20   25.30
  -1   2  -3   32.30    5.40
  -1   2  -3   27.20    5.30
   1   2   3   27.70    3.00
   1   2   3   30.60    5.10
   1  -2   3   27.60    4.80
   1  -2   3   21.80    5.00
   1  -2   3   28.30    5.30
  -1  -2  -3   29.60    3.70
  -1   2  -4 2223.48   62.49
  -1   2  -4 2126.99   61.29
   1   2   4 2304.87   55.19
   1   2   4 2219.18   60.99
   1  -2   4 2295.17   63.09
  -1  -2  -4 2242.38   55.59
   1  -2   4 2204.48   59.49
   1  -2   4 2249.07   63.29
  -1   2  -5  656.13   27.20
   1   2   5  723.13   22.90
  -1   2  -5  677.73   28.30
   1  -2   5  675.33   28.20
   1  -2   5  696.33   25.60
   1  -2   5  680.93   28.90
  -1  -2  -5  691.03   22.50
  -1  -2  -5  700.23   21.80
   1   2   6  665.83   28.40
  -1   2  -6  641.94   28.80
   1   2   6  654.53   23.40
  -1   2  -6  622.04   27.70
   1  -2   6  642.44   30.20
   1  -2   6  676.03   26.10
  -1  -2  -6  621.94   27.20
  -1  -2  -6  626.24   22.30
  -1  -2  -6  616.84   21.40
  -1   2  -7  151.38   14.80
  -1   2  -7  145.89   14.30
   1   2   7  151.88   14.00
   1   2   7  155.08   11.30
   1  -2   7  144.19   14.30
  -1  -2  -7  160.58   10.20
  -1  -2  -7  148.39   14.00
   1  -2   7  150.38   12.30
   1  -2   7  154.68   15.00
  -1  -2  -7  155.18   10.70
  -1   2  -8 2311.67   72.89
   1   2   8 2357.76   66.59
   1   2   8 2336.17   73.69
  -1   2  -8 2234.08   74.49
   1  -2   8 2447.66   75.89
  -1  -2  -8 2307.37   64.39
   1  -2   8 2405.36   75.09
  -1  -2  -8 2361.06   62.99
  -1  -2  -8 2301.47   72.69
   1  -2   8 2404.56   76.89
   1   2   9 1658.23   59.99
  -1   2  -9 1595.04   58.79
  -1   2  -9 1667.03   62.09
   1   2   9 1602.44   58.59
  -1  -2  -9 1619.04   49.99
   1  -2   9 1668.43   62.79
   1  -2   9 1682.53   60.79
  -1  -2  -9 1633.94   59.99
   1  -2   9 1800.72   55.49
  -1  -2  -9 1612.24   55.49
  -1   2 -10  131.59   13.70
   1   2  10  131.09   17.00
   1   2  10  122.39   13.40
  -1   2 -10  145.99   23.70
   1  -2  10  147.09   14.00
  -1  -2 -10  142.79   12.00
  -1  -2 -10   95.29   17.90
   1  -2  10  136.39   17.50
   1  -2  10  147.79   17.10
   1   2  11  263.07   19.60
   1   2  11  285.67   24.20
  -1   2 -11  270.47   19.20
   1  -2  11  234.68   23.90
   1  -2  11  264.07   23.60
   1  -2  11  234.38   18.50
  -1  -2 -11  283.87   17.10
  -1   2 -12    0.70    7.20
   1   2  12   -1.40    6.50
  -1  -2 -12    8.00    6.60
   1  -2  12    9.60    6.20
   1  -2  12   20.80   10.30
   1   2  13   10.00    8.20
   1  -2  13   13.00    7.00
  -1  -2 -13   -2.60    6.70
   1  -2  13   10.70    6.80
  -1   3  14  201.78   19.70
  -1  -3  14  181.78   17.50
   1  -3 -14  152.48   15.00
  -1  -3  14  130.79   21.00
  -1   3  13    5.80    6.80
  -1  -3  13   16.90    6.60
   1  -3 -13    3.00    6.50
  -1   3  12   44.10   10.50
  -1  -3  12   32.70    8.10
   1  -3 -12   50.89    8.10
  -1  -3  12   19.60   10.50
  -1   3  11  242.98   19.90
   1   3 -11  229.68   21.40
   1  -3 -11  264.27   18.90
  -1  -3  11  210.88   19.00
   1  -3 -11  232.88   13.50
  -1  -3  11  230.48   22.70
   1   3 -10   73.09   13.10
  -1   3  10   37.60    9.70
   1  -3 -10   65.59    7.00
  -1  -3  10   37.80    9.00
   1  -3 -10   52.79   10.20
   1  -3 -10   61.59   11.40
  -1  -3  10   46.30   12.20
   1   3  -9 1338.57   53.19
   1   3  -9 1252.37   50.39
   1   3  -9 1363.76   48.10
  -1   3   9 1369.46   49.10
  -1  -3   9 1327.87   52.69
  -1  -3   9 1383.56   49.20
   1  -3  -9 1155.38   49.10
   1  -3  -9 1254.77   36.90
   1  -3  -9 1271.87   43.20
  -1   3   8  324.77   21.50
   1   3  -8  325.07   22.00
   1   3  -8  318.37   22.80
   1   3  -8  328.67   20.20
   1  -3  -8  300.57   12.90
  -1  -3   8  313.27   22.40
   1  -3  -8  304.97   17.40
   1  -3  -8  262.17   15.20
  -1  -3   8  316.27   20.50
   1   3  -7   47.90    8.90
  -1   3   7   40.50    7.80
   1   3  -7   53.99   10.60
  -1  -3   7   45.10    9.20
   1  -3  -7   33.00    6.50
  -1  -3   7   52.19    9.60
   1  -3  -7   43.90    8.30
   1   3  -6  226.78   16.50
  -1   3   6  236.28   14.30
   1   3  -6  233.98   15.40
   1   3  -6  217.58   16.10
  -1  -3   6  222.98   16.00
  -1  -3   6  216.38   16.50
   1  -3  -6  219.58   10.70
   1   3  -5  321.77   17.60
   1   3  -5  348.47   19.30
   1   3  -5  321.67   18.40
  -1   3   5  356.36   16.40
  -1  -3   5  341.77   19.40
  -1  -3   5  339.77   18.20
   1   3  -4  991.80   41.50
  -1   3   4 1008.00   30.20
   1   3  -4  923.91   33.10
   1  -3  -4 1009.50   27.00
  -1  -3   4  967.40   33.50
  -1  -3   4  962.10   34.30
   1   3  -3 1184.08   37.70
  -1   3   3 1223.98   32.70
   1   3  -3 1252.67   38.20
  -1   3   3 1247.88   34.00
  -1  -3   3 1211.78   38.30
   1  -3  -3 1268.97   33.10
  -1  -3   3 1193.58   38.00
   1   3  -2   47.80    5.70
   1   3  -2   49.80    6.20
  -1   3   2   51.79    3.60
  -1   3   2   44.80    5.10
  -1  -3   2   43.80    5.70
   1  -3  -2   48.50    3.30
  -1  -3   2   51.99    6.40
   1  -3  -2   47.50    5.20
   1   3  -1 1612.64   43.50
   1   3  -1 1587.54   42.60
  -1   3   1 1587.14   40.30
  -1   3   1 1623.34   43.20
  -1  -3   1 1633.34   42.90
   1  -3  -1 1632.24   39.90
   1   3   0 9933.51  218.18
   1   3   0 9149.58  215.68
  -1   3   0 9865.81  220.08
  -1  -3   0 9304.77  215.78
  -1  -3   0 9610.64  217.98
   1  -3   0 9999.00  217.88
   1   3   1 3758.92   88.29
  -1   3  -1 4034.60   96.19
  -1   3  -1 3988.50   94.49
  -1   3  -1 3984.40   94.39
   1   3   1 4012.40   91.89
  -1  -3  -1 3509.75   91.19
   1  -3   1 4063.79   95.09
  -1   3  -2  399.86   17.40
  -1   3  -2  412.86   17.40
   1   3   2  399.76   13.20
   1   3   2  396.96   13.80
   1  -3   2  404.46   17.70
  -1  -3  -2  416.36   14.00
  -1   3  -3 1662.93   49.80
  -1   3  -3 1730.83   50.09
   1   3   3 1709.53   43.30
   1  -3   3 1736.13   50.89
  -1  -3  -3 1721.13   43.30
   1  -3   3 1743.83   49.70
  -1   3  -4  214.48   14.40
   1   3   4  213.18   13.20
  -1   3  -4  202.88   13.90
  -1  -3  -4  203.78    9.50
   1  -3   4  196.18   13.00
   1  -3   4  211.48   14.60
   1   3   5  908.61   33.40
  -1   3  -5  930.81   35.70
   1   3   5  917.71   25.80
  -1   3  -5  916.61   34.80
  -1  -3  -5  951.70   27.40
   1  -3   5  931.01   36.50
   1  -3   5  896.61   37.50
   1  -3   5  933.81   33.40
  -1   3  -6  252.17   17.80
   1   3   6  247.98   16.80
   1   3   6  256.07   11.90
  -1   3  -6  243.48   17.70
  -1  -3  -6  262.77   12.90
   1  -3   6  248.98   18.20
   1  -3   6  262.77   18.90
  -1  -3  -6  262.77   12.30
   1  -3   6  259.37   16.40
  -1   3  -7  347.07   23.20
   1   3   7  357.96   21.50
   1   3   7  342.97   15.70
   1  -3   7  377.76   20.80
   1  -3   7  347.17   22.70
  -1  -3  -7  333.47   15.30
   1  -3   7  331.87   23.00
  -1  -3  -7  348.97   16.00
  -1   3  -8  198.68   20.10
   1   3   8  203.38   17.30
   1   3   8  197.98   12.90
  -1   3  -8  205.08   28.40
   1  -3   8  198.68   18.50
   1  -3   8  184.88   18.60
  -1  -3  -8  182.38   11.80
   1  -3   8  192.68   15.80
  -1  -3  -8  202.78   13.00
  -1   3  -9 1809.32   65.09
   1   3   9 1860.11   64.59
   1   3   9 1920.11   55.29
  -1  -3  -9 1681.63   63.39
   1  -3   9 1847.92   60.59
  -1  -3  -9 1805.92   52.59
   1  -3   9 1908.01   67.59
   1  -3   9 1904.81   69.39
  -1   3 -10  149.88   17.60
   1   3  10  122.79   15.40
   1   3  10  150.78   15.40
   1  -3  10  147.69   15.10
   1  -3  10  131.89   17.00
  -1  -3 -10  145.29   11.90
   1  -3  10  149.88   18.60
   1   3  11   51.39    9.70
   1   3  11   32.10   11.00
  -1   3 -11   68.39   12.20
   1  -3  11   64.29    9.50
   1  -3  11   42.20   13.20
   1  -3  11   32.30   15.10
   1   3  12  113.49   16.70
   1   3  12   79.09   12.90
  -1  -3 -12   99.09   11.20
   1  -3  12   91.99   11.40
   1  -3  12   71.49   14.70
   1   3  13   76.39   14.90
   1  -3  13   77.39   13.60
  -1  -3 -13   93.39   13.10
   1  -3  13   83.99   16.00
  -1  -4  13  104.19   14.10
  -1  -4  13   94.09   19.20
   1   4 -12   88.69   16.20
  -1   4  12   85.79   13.40
  -1  -4  12   93.19   12.80
  -1  -4  12  115.89   16.90
  -1   4  11  128.59   14.20
   1   4 -11   89.09   17.60
  -1  -4  11   73.59   17.60
  -1  -4  11  115.29   14.00
  -1   4  10  108.59   14.50
   1   4 -10  118.09   16.90
  -1  -4  10  122.09   17.10
  -1  -4  10  129.29   15.10
   1   4  -9   15.80    7.70
  -1   4   9   12.70    6.90
  -1  -4   9   13.70    7.50
  -1  -4   9   13.40    7.90
   1  -4  -9   12.30    5.90
   1   4  -8  103.39   15.80
   1   4  -8  160.28   16.40
   1   4  -8  116.49   14.60
  -1   4   8  134.19   13.50
   1  -4  -8  112.39    9.50
   1  -4  -8  114.79   11.50
  -1  -4   8  124.99   15.50
  -1  -4   8  139.99   14.70
  -1   4   7  285.97   17.40
   1   4  -7  283.97   20.80
   1   4  -7  292.47   21.70
   1   4  -7  284.37   20.20
  -1  -4   7  298.17   21.50
  -1  -4   7  295.87   19.90
   1  -4  -7  275.97   12.10
   1   4  -6 1061.19   40.30
  -1   4   6 1056.79   35.80
   1   4  -6 1018.40   40.80
  -1  -4   6 1028.80   41.30
  -1  -4   6 1024.50   39.30
  -1   4   5 1814.32   51.49
   1   4  -5 1760.92   56.39
   1   4  -5 1830.62   58.09
  -1  -4   5 1778.62   58.59
  -1  -4   5 1881.91   57.29
   1   4  -4  546.75   24.70
  -1   4   4  544.55   18.60
   1   4  -4  595.54   26.30
   1   4  -4  554.74   24.90
  -1   4   4  577.64   21.20
  -1  -4   4  556.34   25.00
  -1  -4   4  574.64   25.70
   1   4  -3  427.86   19.80
  -1   4   3  394.96   15.60
   1   4  -3  395.56   19.20
  -1  -4   3  375.86   19.20
  -1  -4   3  390.96   19.30
   1   4  -2  282.97   14.50
   1   4  -2  294.47   15.30
  -1   4   2  298.57   11.00
  -1   4   2  278.37   13.20
  -1  -4   2  286.67   15.90
   1  -4  -2  277.67    9.70
  -1  -4   2  285.97   14.90
  -1   4   1   84.99    7.70
   1   4  -1   79.29    7.10
   1   4  -1   87.79    8.00
  -1   4   1   84.99    6.50
  -1  -4   1   90.79    7.40
   1  -4  -1   88.59    6.20
   1   4   0 2288.47   59.49
  -1   4   0 2246.08   61.39
   1  -4   0 2359.06   58.99
  -1  -4   0 2270.77   59.69
  -1  -4   0 2284.57   57.19
   1   4   1 2072.29   53.69
   1   4   1 2082.09   49.90
  -1   4  -1 2129.19   55.99
  -1   4  -1 2082.49   57.99
  -1  -4  -1 2040.90   53.49
   1  -4   1 2042.30   55.99
  -1   4  -2  969.70   33.90
  -1   4  -2  949.60   32.40
   1   4   2  957.20   28.10
   1   4   2 1000.40   28.50
  -1   4  -2  971.40   32.70
   1  -4   2  983.50   33.30
  -1  -4  -2  950.80   28.20
   1   4   3  372.76   14.20
   1   4   3  384.66   13.60
  -1   4  -3  393.16   19.60
  -1  -4  -3  372.96   14.20
   1  -4   3  384.16   19.60
   1  -4   3  405.56   20.20
  -1   4  -4  202.88   15.10
   1   4   4  229.58   10.30
   1   4   4  225.08   14.30
   1  -4   4  225.68   16.00
  -1  -4  -4  219.98   10.30
   1  -4   4  226.28   15.30
   1   4   5  482.75   22.80
  -1   4  -5  458.65   24.20
  -1  -4  -5  472.65   16.70
   1  -4   5  485.85   25.50
   1  -4   5  464.95   23.60
  -1   4  -6  110.39   13.90
   1   4   6  111.09   12.10
  -1   4  -6  115.59   13.90
   1  -4   6  106.79   12.10
  -1  -4  -6  108.19    7.90
   1  -4   6  113.69   13.40
  -1   4  -7  224.48   20.10
  -1   4  -7  274.37   22.10
   1   4   7  281.07   19.20
   1  -4   7  286.47   19.40
  -1  -4  -7  292.87   14.90
   1  -4   7  273.37   21.40
  -1  -4  -7  281.87   13.10
   1   4   8  500.15   27.60
  -1   4  -8  425.06   28.60
   1  -4   8  485.15   29.80
  -1  -4  -8  484.95   23.60
  -1  -4  -8  475.25   18.50
   1  -4   8  509.05   27.10
   1   4   9   57.99   11.70
  -1   4  -9   50.29   11.70
   1  -4   9   55.49   11.10
  -1  -4  -9   64.19    8.70
  -1  -4  -9   69.29    7.10
   1  -4   9   45.90   12.90
  -1   4 -10  155.78   28.40
   1   4  10  148.09   17.80
   1  -4  10  158.28   19.20
   1  -4  10  124.59   15.80
  -1  -4 -10  192.08   12.90
  -1  -4 -10  177.38   11.10
   1   4  11  601.84   35.00
   1  -4  11  594.64   37.90
  -1  -4 -11  677.23   26.40
   1  -4  11  581.94   32.30
  -1  -4 -11  599.64   23.70
   1   4  12  191.98   24.90
   1  -4  12  165.38   22.20
  -1  -4 -12  122.59   13.20
   1  -4  12  179.88   17.20
   1   4  13  126.79   13.40
  -1  -5  13   99.79   13.70
  -1  -5  13   67.99   12.10
   1   5 -12   34.60    9.40
  -1   5  11   55.89   10.70
  -1  -5  11   35.00   10.70
  -1  -5  11   37.00   12.10
  -1   5  10  347.07   23.70
   1   5 -10  296.17   25.30
  -1  -5  10  347.07   25.80
   1  -5 -10  430.66   22.00
  -1  -5  10  367.46   28.90
   1   5  -9  304.67   24.50
  -1   5   9  335.47   22.00
  -1  -5   9  333.17   26.40
   1  -5  -9  331.47   20.70
  -1  -5   9  340.17   24.50
   1   5  -8   42.90   10.80
  -1   5   8   52.09    9.90
  -1  -5   8   65.89   13.70
  -1  -5   8   52.39   12.90
  -1   5   7  106.79   11.30
   1   5  -7   98.39   14.20
   1   5  -7  153.08   16.20
   1   5  -7  132.79   16.30
  -1  -5   7  108.59   13.60
  -1  -5   7  114.69   14.70
   1   5  -6  554.84   28.70
   1   5  -6  532.25   28.30
   1   5  -6  495.55   28.20
  -1   5   6  506.45   23.00
  -1  -5   6  545.85   29.20
  -1  -5   6  559.04   28.50
   1   5  -5  653.13   30.80
  -1   5   5  674.93   25.80
   1   5  -5  635.34   30.10
  -1  -5   5  657.63   30.70
  -1  -5   5  669.83   31.20
   1   5  -4 1320.87   47.20
  -1   5   4 1335.37   38.80
   1   5  -4 1398.06   46.80
   1   5  -4 1369.46   46.10
  -1  -5   4 1327.87   47.00
  -1  -5   4 1425.36   60.09
   1   5  -3  618.14   27.80
   1   5  -3  654.23   27.10
  -1   5   3  677.83   20.00
  -1   5   3  642.34   23.60
  -1  -5   3  682.13   28.00
  -1  -5   3  694.63   29.40
  -1   5   2  376.26   17.50
  -1   5   2  399.16   15.10
   1   5  -2  417.86   19.80
   1   5  -2  411.56   19.10
   1  -5  -2  371.86   13.10
  -1  -5   2  402.86   19.10
  -1  -5   2  388.16   20.80
  -1   5   1  798.02   29.80
  -1   5   1  820.32   26.40
   1   5  -1  821.82   29.40
   1   5  -1  777.42   27.10
  -1  -5   1  776.52   27.50
   1  -5  -1  803.22   24.90
   1   5   0  393.26   17.50
  -1   5   0  365.66   18.50
  -1   5   0  377.16   17.10
   1   5   0  382.96   15.30
  -1  -5   0  357.46   15.10
   1  -5   0  364.16   16.30
   1   5   1  126.99    9.40
  -1   5  -1  128.89   10.40
  -1   5  -1  136.79   11.70
  -1   5  -1  128.59   11.10
   1  -5   1  126.79   10.20
  -1   5  -2  342.77   19.20
   1   5   2  354.36   15.00
  -1   5  -2  327.57   21.00
   1   5   2  320.97   15.00
  -1   5  -2  333.27   18.60
   1  -5   2  339.07   18.20
  -1  -5  -2  347.27   15.10
   1   5   3  404.76   16.30
   1   5   3  418.86   16.20
  -1   5  -3  420.76   22.00
  -1   5  -3  442.76   22.30
  -1   5  -3  429.46   21.70
  -1  -5  -3  436.96   16.60
   1  -5   3  436.26   22.50
   1  -5   3  425.36   22.70
   1   5   4   69.79    6.30
  -1   5  -4   75.79   11.30
  -1   5  -4   59.69   10.20
  -1  -5  -4   78.99    7.40
   1  -5   4   83.49   10.90
   1  -5   4   75.59   10.90
   1   5   5   40.40    8.10
  -1   5  -5   49.90   10.50
  -1   5  -5   48.60   10.00
   1  -5   5   48.60   10.00
  -1  -5  -5   43.90    6.00
   1  -5   5   51.19   10.50
   1   5   6  360.86   21.00
  -1   5  -6  338.17   23.20
  -1   5  -6  308.17   22.50
  -1  -5  -6  350.46   14.30
   1  -5   6  348.97   22.30
   1  -5   6  349.47   23.90
  -1   5  -7  393.06   26.20
   1   5   7  394.76   23.30
  -1   5  -7  402.26   25.40
  -1  -5  -7  372.26   15.40
   1  -5   7  371.46   25.90
   1  -5   7  406.56   24.70
   1   5   8  470.45   27.10
  -1   5  -8  446.56   27.30
   1  -5   8  463.75   27.50
   1  -5   8  483.05   30.80
  -1  -5  -8  452.25   21.40
  -1  -5  -8  490.15   17.60
   1   5   9   29.10   10.00
   1  -5   9   29.10   10.30
   1  -5   9   32.70    8.50
   1   5  10  283.77   23.20
  -1  -5 -10  376.36   18.10
   1  -5  10  298.07   29.90
   1  -5  10  303.87   23.30
   1   5  11   66.09   10.70
   1  -5  11   98.69   15.40
   1  -5  11   66.29   11.90
   1   5  12  136.99   13.30
  -1   5 -12   86.79   15.80
  -1   6  12  163.88   20.00
   1   6 -12  200.38   23.60
  -1  -6  12  199.18   20.60
  -1  -6  12  186.28   22.50
  -1   6  11  183.18   17.40
   1   6 -11  184.48   21.00
  -1  -6  11  144.99   18.70
  -1  -6  11  177.58   22.60
  -1   6  10  195.68   17.80
   1   6 -10  175.38   21.00
  -1  -6  10  199.48   22.90
  -1  -6  10  200.18   23.10
  -1   6   9  514.75   27.60
   1   6  -9  485.85   32.20
  -1  -6   9  508.25   31.40
  -1  -6   9  503.05   33.60
   1   6  -8  164.78   18.90
  -1   6   8  171.18   15.30
  -1  -6   8  149.79   17.40
  -1  -6   8  150.98   18.40
   1   6  -7  769.32   34.70
   1   6  -7  683.03   35.70
   1   6  -7  732.43   36.20
  -1  -6   7  678.43   36.40
  -1  -6   7  655.33   34.70
  -1   6   6   71.19    9.60
   1   6  -6   97.49   13.10
   1   6  -6   66.59   13.30
   1   6  -6  109.79   17.60
  -1  -6   6   66.19   12.10
  -1  -6   6   70.29   12.40
  -1   6   5  227.28   12.10
   1   6  -5  196.78   18.00
   1   6  -5  213.58   18.80
  -1   6   5  200.98   13.80
   1   6  -5  191.48   17.90
  -1  -6   5  220.38   18.00
  -1  -6   5  203.48   18.00
   1   6  -4   61.79   12.20
  -1   6   4   77.99    8.80
   1   6  -4   70.09   11.40
   1   6  -4   58.69   10.60
  -1  -6   4   70.59   10.60
  -1  -6   4   68.89   11.10
  -1   6   3   69.79   16.20
  -1   6   3   54.99    5.90
   1   6  -3   44.00    9.00
   1   6  -3   57.19    9.70
  -1  -6   3   44.00   10.10
  -1  -6   3   47.50   10.60
  -1   6   2  829.02   27.10
  -1   6   2  808.52   30.50
   1   6  -2  857.41   33.60
   1   6  -2  836.12   31.30
  -1  -6   2  872.11   32.20
   1  -6  -2  864.21   24.70
  -1  -6   2  810.92   34.90
  -1   6   1 1851.11   56.39
  -1   6   1 1909.01   53.09
   1   6  -1 1812.42   53.09
   1   6  -1 1932.91   56.49
  -1  -6   1 1906.31   54.39
   1  -6  -1 1941.21   50.99
   1   6   0  288.67   16.10
  -1   6   0  289.57   16.10
  -1   6   0  272.47   17.40
   1  -6   0  279.37   15.00
  -1  -6   0  274.77   13.90
  -1   6  -1 1680.23   50.39
   1   6   1 1582.34   42.20
   1   6   1 1572.44   47.00
  -1   6  -1 1576.34   51.89
   1   6   1 1577.74   48.40
   1  -6   1 1639.84   49.40
   1   6   2  358.06   16.60
  -1   6  -2  335.07   19.60
  -1   6  -2  329.47   20.20
  -1   6  -2  362.06   20.00
   1   6   2  334.97   17.50
  -1   6  -2  371.96   20.80
   1  -6   2  362.06   19.90
  -1   6  -3  173.88   14.50
  -1   6  -3  172.88   15.20
  -1   6  -3  174.78   15.50
  -1   6  -3  148.19   14.00
   1   6   3  178.18   11.60
   1   6   3  167.48   10.70
   1  -6   3  162.18   14.70
  -1  -6  -3  166.78   11.00
   1  -6   3  177.58   16.00
   1   6   4  798.82   25.80
  -1   6  -4  821.02   35.20
  -1   6  -4  767.22   34.80
   1   6   4  814.42   26.40
  -1   6  -4  836.22   35.50
   1  -6   4  841.62   36.40
   1  -6   4  816.32   36.60
  -1   6  -5  303.97   21.30
  -1   6  -5  347.77   21.80
   1   6   5  314.07   19.90
  -1   6  -5  298.17   20.90
   1   6   5  301.27   13.30
   1  -6   5  304.17   21.70
  -1  -6  -5  292.47   13.80
   1  -6   5  329.17   23.00
  -1   6  -6   85.29   13.00
   1   6   6   61.39   12.40
  -1   6  -6   54.39   11.00
   1  -6   6   46.00   10.60
   1  -6   6   59.69   11.90
  -1   6  -7  833.82   41.80
   1   6   7  846.42   36.70
   1  -6   7  864.71   42.20
   1  -6   7  830.92   39.30
   1   6   8   63.69   12.00
   1  -6   8   64.59   12.70
   1  -6   8   62.39   14.50
   1   6   9  113.79   13.70
   1  -6   9  108.09   15.50
   1   6  10  228.68   19.90
  -1   6 -10  185.58   22.40
   1  -6  10  213.48   26.10
   1  -6  10  226.58   24.70
   1   6  11  128.59   13.90
   1  -6  11  138.89   13.60
   1   6  12  240.18   19.30
  -1   6 -12  227.78   23.70
  -1  -6 -12  277.57   16.40
   1   7 -11   52.99   14.70
  -1  -7  11   77.59   14.60
  -1  -7  11   50.79   14.50
  -1   7  10  252.47   20.80
   1   7 -10  240.18   23.60
  -1  -7  10  247.98   25.40
  -1  -7  10  258.77   23.10
   1  -7 -10  313.37   20.40
   1   7  -9   58.99   13.80
  -1  -7   9   68.09   16.10
  -1  -7   9   61.19   13.20
   1   7  -8   -1.40    7.50
  -1   7   8   13.10    7.00
  -1  -7   8    6.00    7.30
  -1  -7   8    2.60    6.80
  -1   7   7  738.83   30.90
   1   7  -7  731.53   37.90
  -1  -7   7  750.82   39.00
  -1  -7   7  721.43   38.90
   1   7  -6  501.95   30.60
   1   7  -6  486.85   30.10
   1   7  -6  581.24   29.20
  -1   7   6  626.74   21.30
  -1   7   6  550.34   25.30
  -1  -7   6  537.75   31.60
  -1  -7   6  529.05   31.40
   1   7  -5  438.56   26.80
  -1   7   5  419.46   21.30
   1   7  -5  458.35   27.30
  -1  -7   5  430.06   26.70
  -1  -7   5  425.56   27.30
   1   7  -4  406.86   24.20
   1   7  -4  417.96   24.70
   1   7  -4  389.16   24.40
  -1   7   4  400.76   19.20
  -1  -7   4  426.56   25.00
  -1  -7   4  386.66   25.50
  -1   7   3  287.27   16.60
  -1   7   3  290.47   13.90
   1   7  -3  258.27   18.90
   1   7  -3  268.17   19.60
  -1  -7   3  270.17   18.90
  -1  -7   3  275.37   21.00
  -1   7   2 1008.20   32.70
   1   7  -2  977.20   36.30
   1   7  -2  982.80   38.80
  -1   7   2  946.31   36.10
  -1  -7   2 1010.40   37.80
  -1  -7   2 1028.40   42.30
   1  -7  -2  991.30   29.00
  -1   7   1  946.91   37.70
  -1   7   1 1032.70   35.30
   1   7  -1 1015.80   35.60
   1   7  -1 1005.20   38.00
  -1  -7   1 1044.80   35.90
   1  -7  -1 1054.39   32.80
  -1  -7   1 1042.20   42.10
  -1   7   0  476.05   22.80
  -1   7   0  483.05   24.80
   1   7   0  459.75   30.90
   1   7   0  455.35   19.50
   1   7   0  436.66   23.10
   1  -7   0  474.15   21.40
   1   7   1  106.19   11.00
   1   7   1  111.89   12.00
  -1   7  -1  124.69   13.40
  -1   7  -1  130.49   13.00
   1  -7   1  112.29   11.60
   1   7   2  144.19   11.70
   1   7   2  162.18   12.30
  -1   7  -2  152.08   15.20
  -1   7  -2  151.18   14.50
  -1   7  -2  130.19   14.30
   1  -7   2  146.19   13.70
  -1   7  -3  454.45   26.20
  -1   7  -3  472.75   26.20
  -1   7  -3  475.15   26.60
  -1   7  -3  432.26   24.80
   1   7   3  493.35   20.20
   1   7   3  461.95   20.60
   1  -7   3  528.05   29.30
   1  -7   3  446.96   25.40
   1   7   4  123.49   11.00
  -1   7  -4   94.29   14.60
  -1   7  -4  102.19   15.00
  -1   7  -4  114.49   17.00
   1   7   4  104.09    9.30
   1  -7   4  106.19   14.70
   1  -7   4   93.69   13.50
   1   7   5  573.94   28.80
  -1   7  -5  631.74   32.40
  -1   7  -5  625.84   33.40
   1   7   5  585.74   21.00
  -1   7  -5  604.94   33.10
   1  -7   5  619.24   33.30
   1  -7   5  607.84   33.00
  -1   7  -6  231.68   21.50
  -1   7  -6  300.87   23.40
   1   7   6  260.97   19.60
   1  -7   6  227.48   21.60
   1  -7   6  227.68   20.50
   1   7   7  282.37   20.50
  -1   7  -7  288.37   25.00
   1  -7   7  260.37   23.60
   1  -7   7  289.77   23.60
   1   7   8  167.28   16.50
  -1   7  -8  136.09   24.00
   1  -7   8  156.68   23.70
   1  -7   8  176.38   19.60
   1   7   9  252.87   19.00
  -1   7  -9  196.98   23.40
   1  -7   9  207.78   22.50
   1  -7   9  236.88   24.70
   1   7  10   98.39   15.50
  -1   7 -10  106.39   20.70
   1  -7  10  148.39   16.20
   1  -7  10  131.59   20.40
   1   7  11  -11.70    7.70
   1  -7  11   -9.70    8.90
   1   8 -10  213.68   22.50
  -1  -8  10  192.88   23.90
  -1  -8  10  229.28   23.70
  -1   8   9    6.50    7.90
   1   8  -9    8.90    9.30
  -1  -8   9   -0.20    6.90
  -1  -8   9    6.60    9.50
   1   8  -8  426.26   30.10
  -1   8   8  391.96   23.70
  -1  -8   8  462.15   31.50
  -1  -8   8  411.36   31.60
  -1   8   7   56.39   11.10
  -1  -8   7   32.90   11.60
  -1  -8   7   39.30   13.60
  -1   8   6   79.29   11.20
   1   8  -6   49.30   12.40
  -1  -8   6   79.89   14.30
  -1  -8   6   65.39   12.90
  -1   8   5  100.89   18.10
   1   8  -5  102.19   15.70
  -1  -8   5  111.59   16.10
  -1  -8   5  120.99   15.40
  -1   8   4   57.89    7.70
   1   8  -4   67.49   13.10
  -1  -8   4   62.59   12.00
  -1  -8   4   52.39   12.10
   1   8  -3  251.37   20.70
   1   8  -3  303.17   20.20
  -1   8   3  346.77   19.70
  -1   8   3  276.77   15.30
  -1  -8   3  323.47   24.00
  -1  -8   3  259.27   19.80
  -1   8   2  349.67   22.10
  -1   8   2  361.56   18.40
   1   8  -2  350.96   22.50
   1   8  -2  384.46   20.20
   1   8  -2  316.87   22.10
  -1  -8   2  374.86   25.60
  -1  -8   2  341.07   20.90
   1   8  -1  835.12   34.60
   1   8  -1  768.72   50.99
  -1   8   1  792.12   34.50
   1   8  -1  774.72   30.80
  -1  -8   1  830.42   32.40
  -1  -8   1  835.82   39.00
   1  -8  -1  778.42   28.30
  -1   8   0  679.53   47.50
   1   8   0  701.23   30.80
   1   8   0  713.63   32.40
  -1   8   0  779.52   31.90
   1  -8   0  754.92   29.20
   1   8   1  522.35   24.20
   1   8   1  465.55   25.30
  -1   8  -1  502.25   26.10
  -1   8  -1  499.05   26.20
  -1   8  -1  494.35   27.10
   1  -8   1  518.25   26.80
  -1   8  -2  700.93   32.90
   1   8   2  681.53   29.70
   1   8   2  720.43   28.90
  -1   8  -2  787.52   34.30
  -1   8  -2  718.43   34.50
   1  -8   2  680.93   32.10
   1   8   3  419.56   19.70
   1   8   3  415.36   20.40
  -1   8  -3  390.26   24.70
  -1   8  -3  378.56   25.10
   1  -8   3  380.16   27.00
   1  -8   3  387.36   24.70
   1   8   4  150.18   11.30
  -1   8  -4  134.79   17.60
   1  -8   4  146.09   16.50
   1  -8   4  163.38   18.20
  -1   8  -5   91.09   16.60
   1   8   5  108.19    9.00
  -1   8  -5  155.48   27.70
   1   8   5  118.69   14.40
   1  -8   5  124.09   16.70
   1  -8   5  101.39   16.10
  -1   8  -6   51.79   13.50
   1   8   6   35.80    9.80
   1  -8   6   36.50   10.10
   1  -8   6   47.60   12.30
   1   8   7   86.39   12.90
  -1   8  -7  118.69   17.80
   1  -8   7   74.19   14.70
   1  -8   7   81.09   20.50
  -1   8  -8  167.28   19.50
   1   8   8  148.09   16.20
   1  -8   8  147.69   20.80
   1  -8   8  136.69   19.00
  -1   8  -9  104.49   18.90
   1   8   9  113.39   13.80
   1  -8   9  105.19   17.70
   1  -8   9   74.29   15.50
   1   8  10   38.10    9.90
  -1   8 -10   18.50   12.80
   1  -8  10   36.00   12.40
   1  -8  10   27.90   10.30
  -1  -8 -10   36.80   11.40
  -1   9   9   28.40    8.30
   1   9  -9   26.10    9.80
  -1  -9   9   38.80   12.50
   1   9  -8  126.79   17.40
  -1   9   8  123.29   13.80
  -1  -9   8  110.69   19.30
  -1  -9   8  118.49   18.90
   1   9  -7  115.19   17.30
  -1   9   7   83.69   11.50
  -1  -9   7   75.59   15.50
  -1  -9   7   94.99   19.80
   1   9  -6  296.17   24.10
  -1   9   6  274.47   19.50
  -1  -9   6  274.87   25.40
  -1  -9   6  321.77   25.40
  -1   9   5  159.48   14.40
  -1   9   5  207.48   17.30
  -1  -9   5  152.18   18.40
  -1  -9   5  146.29   19.20
  -1   9   4  300.17   21.10
   1   9  -4  251.17   22.60
  -1  -9   4  244.48   21.40
  -1  -9   4  301.67   28.20
  -1   9   3  193.98   19.40
  -1   9   3  184.98   13.40
   1   9  -3  156.18   18.60
  -1  -9   3  147.59   18.60
  -1  -9   3  187.08   17.60
  -1   9   2  561.34   26.60
   1   9  -2  564.44   30.40
  -1   9   2  589.94   30.70
  -1  -9   2  561.14   34.00
  -1  -9   2  571.54   28.70
   1   9  -1  212.38   18.20
  -1   9   1  251.47   16.50
  -1  -9   1  228.98   21.90
   1  -9  -1  223.08   14.50
  -1   9   0   55.39   10.20
   1   9   0   45.80   10.10
  -1   9   0   49.00   16.20
   1  -9   0   45.70    9.20
  -1   9  -1   81.09   13.80
   1   9   1   58.19   11.00
   1  -9   1   72.29   11.20
   1   9   2  378.26   21.40
  -1   9  -2  427.76   25.90
  -1   9  -2  379.66   27.70
   1   9   2  397.56   24.20
   1  -9   2  373.26   23.80
   1  -9   2  366.66   28.00
   1   9   3  338.27   21.70
  -1   9  -3  293.27   24.10
  -1   9  -3  333.37   24.30
   1  -9   3  327.47   23.40
   1  -9   3  359.66   27.60
   1   9   4  148.69   12.90
   1   9   4  208.38   16.60
  -1   9  -4  182.18   18.80
   1  -9   4  156.28   20.80
   1  -9   4  162.08   17.40
   1   9   5  115.69   14.30
  -1   9  -5  100.09   17.60
   1   9   5  129.19    9.90
   1  -9   5  102.99   17.20
   1  -9   5   79.59   15.60
   1   9   6   80.29   11.40
   1  -9   6   96.89   19.10
  -1   9  -7    5.00    8.60
   1  -9   7   -2.00    6.30
   1  -9   7    1.10    8.50
   1   9   8  125.59   13.90
  -1   9  -8   86.99   17.30
   1  -9   8  118.29   17.50
   1  -9   8   91.89   17.40
  -1  10   7   66.49   11.60
   1  10  -7  102.59   18.30
  -1 -10   7   94.09   16.30
  -1 -10   7   69.59   15.90
  -1  10   6  365.76   19.50
  -1  10   6  287.47   19.10
   1  10  -6  312.77   24.80
  -1 -10   6  326.37   25.50
  -1 -10   6  244.18   25.20
  -1 -10   5   -2.70    7.00
  -1 -10   5   -4.30    7.80
  -1  10   4  432.76   18.90
   1  10  -4  416.36   32.30
  -1  10   4  405.96   28.50
  -1 -10   4  427.06   31.90
  -1 -10   4  395.96   28.20
   1  10  -3  234.88   21.10
  -1 -10   3  228.78   23.40
  -1 -10   3  245.58   21.00
  -1  10   2   47.50   10.50
  -1 -10   2   39.80   10.20
   1  10  -1  396.36   25.80
  -1  10   1  414.06   23.40
  -1 -10   1  428.36   31.90
   1  10   0   38.50   11.00
  -1  10   0   31.50    9.40
  -1 -10   0   26.30   16.70
   1 -10   0   46.70    9.50
   1  10   1  145.49   15.50
  -1  10  -1  122.49   14.00
   1 -10   1  137.09   14.20
   1 -10   1  149.39   17.30
  -1 -10  -1  125.79   17.70
  -1  10  -2  220.48   15.40
   1  10   2  229.68   18.80
   1  10   3   56.39   15.60
  -1  10  -3   29.80   10.50
   1 -10   3    9.10   10.20
   1 -10   3   17.90    9.20
   1  10   4   82.19   14.60
  -1  10  -4   88.79   15.20
   1 -10   4   89.39   15.20
   1 -10   4   92.09   16.00
   1  10   5  218.48   17.10
   1 -10   5  186.78   31.00
   1 -10   5  162.68   21.20
  -1  10  -6  150.58   17.70
   1  10   6  143.59   13.60
   1 -10   6  108.99   16.20
   1 -10   7   26.20   10.70
  -1  11   3  134.49   12.10
  -1 -11   3  143.49   17.30
   1  11  -2   48.70   13.30
   1  11  -1   78.79   12.80
  -1  11   1   53.59   10.00
  -1 -11   1   51.39   14.80
   1  11   0   32.20   10.50
  -1  11   0   40.20   10.60
   1 -11   0   19.70   10.60
  -1 -11   0   23.80   11.20
  -1  11  -1   61.49   13.90
   1  11   1   84.19   14.10
  -1 -11  -1   53.69   14.40
   1  11   2   43.00   10.80
  -1 -11  -2   34.40   12.40
   1 -11   2   48.30   11.40
   1 -11   2   29.50   11.90
   1  11   3  148.29   14.50
  -1  11  -3  189.88   17.30
   1 -11   3  114.39   19.70
  -1 -11  -3  151.38   18.80
   1 -11   3  138.39   17.20
   1  11   4   70.49   20.30
   1  11   4  124.59   12.80
  -1  11  -4  129.49   17.70
   1 -11   4   98.99   18.50
   1 -11   4  165.28   19.60
   2   0 -14  220.98   16.20
   2   0 -14  221.48   19.20
  -2   0  13   -3.10    6.20
   2   0 -13   -0.90    6.40
  -2   0  12   40.00   12.40
   2   0 -12   53.09   11.10
  -2   0  12   40.50   11.30
  -2   0  11   -6.20    5.10
   2   0 -11   11.30    6.60
   2   0 -11   -8.10    6.50
   2   0 -11   -7.00    6.10
   2   0 -11    4.30    5.60
  -2   0  11    2.50    6.60
   2   0 -10  303.27   20.60
   2   0 -10  328.57   22.00
   2   0 -10  304.87   18.70
   2   0 -10  325.17   25.70
  -2   0  10  307.87   21.50
   2   0 -10  321.27   19.80
  -2   0  10  320.47   23.50
   2   0  -9    1.50    5.30
  -2   0   9    2.10    4.80
  -2   0   9    4.80    5.60
   2   0  -9    5.80    4.60
   2   0  -9    0.70    4.80
   2   0  -9    1.70    4.50
  -2   0   8   91.39    9.70
   2   0  -8   86.49    9.20
   2   0  -8   64.39   10.40
   2   0  -8   76.29   11.30
  -2   0   8   77.19   10.70
   2   0  -8   76.29    9.70
  -2   0   7    1.20    2.90
   2   0  -7   -2.10    2.60
   2   0  -7    1.20    3.70
   2   0  -7    1.40    3.30
  -2   0   7   10.20    4.90
  -2   0   7    0.00    3.50
   2   0  -7    0.40    3.20
   2   0  -6 4819.52  120.09
   2   0  -6 4704.63  115.39
  -2   0   6 4845.62  118.59
   2   0  -6 4708.73  118.59
  -2   0   6 4864.41  119.59
   2   0  -6 4847.81  118.09
  -2   0   6 4870.11  120.89
   2   0  -5    1.20    2.50
   2   0  -5    4.40    3.20
   2   0  -5   -2.00    2.20
  -2   0   5    2.90    2.30
   2   0  -5   -0.80    2.30
  -2   0   5    1.20    2.50
  -2   0   5    1.80    2.20
   2   0  -5    2.60    2.80
  -2   0   4  907.81   28.30
  -2   0   4  896.01   28.00
   2   0  -4  876.81   26.60
   2   0  -4  878.61   27.90
   2   0  -4  894.91   25.90
  -2   0   4  911.11   28.40
   2   0  -4  895.81   27.90
   2   0  -4  873.91   27.90
   2   0  -3   -0.70    2.00
   2   0  -3    1.10    2.00
   2   0  -3   -1.80    1.80
   2   0  -3   -0.40    2.00
  -2   0   3   -0.20    1.60
   2   0  -3    0.20    2.30
  -2   0   2 3655.43   86.69
   2   0  -2 3736.03   86.79
   2   0  -2 3793.42   85.59
  -2   0   2 3741.93   85.49
  -2   0   1    1.00    1.30
   2   0  -1    3.30    2.20
  -2   0   1    0.40    1.10
   2   0  -1    0.40    2.30
   2   0  -1    0.40    1.20
   2   0   0 3702.33   84.79
   2   0   0 3510.25   85.19
  -2   0   0 3888.01   86.19
   2   0   1    3.00    1.80
  -2   0  -1    2.00    1.60
   2   0   1    2.10    1.80
  -2   0  -1    4.10    1.90
  -2   0  -1   -1.10    1.40
  -2   0  -2 2364.86   61.29
  -2   0  -2 2425.76   57.59
   2   0   2 2443.06   57.59
   2   0   2 2469.65   55.59
   2   0   2 2405.66   60.09
   2   0   3    0.70    2.40
   2   0   3    1.60    1.50
   2   0   3    2.30    2.40
  -2   0  -3   -0.30    2.00
  -2   0  -3    0.90    1.90
  -2   0  -4  394.76   18.60
   2   0   4  397.06   17.30
  -2   0  -4  396.66   14.30
  -2   0  -4  399.06   13.60
   2   0   4  391.86   18.90
   2   0   4  393.66   13.50
  -2   0  -5    1.70    3.50
   2   0   5   -0.90    2.80
  -2   0  -5   -2.40    1.60
  -2   0  -5    0.80    3.40
   2   0   5   -0.80    3.00
   2   0   5    0.30    1.70
  -2   0  -5   -0.80    2.20
  -2   0  -6  250.87   12.30
  -2   0  -6  254.97   17.20
   2   0   6  277.67   24.30
  -2   0  -6  253.17   12.30
  -2   0  -6  252.07   15.90
   2   0   6  254.47   12.10
   2   0   6  257.57   16.00
   2   0   7   -3.40    3.60
  -2   0  -7   -0.30    4.40
  -2   0  -7    1.30    4.10
  -2   0  -7   -3.20    2.80
   2   0   7    3.30    4.80
  -2   0  -7   -0.90    3.30
   2   0   7    1.60    2.50
   2   0   8  634.54   29.80
  -2   0  -8  617.84   32.30
   2   0   8  653.83   33.20
  -2   0  -8  651.43   24.70
  -2   0  -8  604.74   29.30
   2   0   8  626.24   24.20
  -2   0  -8  599.84   23.00
  -2   0  -9    2.90    7.00
  -2   0  -9   -2.80    3.40
   2   0   9   -8.10    4.60
   2   0   9   -1.90    3.50
   2   0   9   -5.00    4.80
  -2   0 -10    6.50    4.60
   2   0  10    6.00    6.10
  -2   0 -10    8.40    5.20
   2   0  10   -5.40    5.20
  -2   0 -11   13.70    5.40
   2   0  11    5.20    6.10
   2   0  11    7.90    6.30
   2   0  12  163.18   21.10
   2   0  12  159.28   17.80
   2   0  13    4.60    8.30
   2   0  13   18.10    7.30
  -2   1  13   65.39   15.00
   2   1 -13   81.29   15.20
   2   1 -13   94.39   16.20
   2  -1 -13   84.39   20.40
  -2  -1  13   70.39   15.20
   2  -1 -13   80.39   14.50
   2   1 -12  205.88   17.80
  -2   1  12  199.68   20.10
  -2  -1  12  216.38   19.90
   2  -1 -12  166.98   16.70
   2  -1 -12  179.78   15.00
  -2  -1  12  196.98   17.90
   2   1 -11  185.98   17.80
  -2   1  11  187.28   18.20
   2  -1 -11  162.98   20.50
  -2  -1  11  186.08   16.80
  -2  -1  11  173.88   18.30
   2  -1 -11  229.58   17.60
   2  -1 -11  217.88   16.00
   2  -1 -11  175.68   13.00
  -2   1  10   59.99   11.60
  -2   1  10   50.99   10.70
   2   1 -10   78.29   16.20
   2   1 -10   66.79   11.20
   2  -1 -10   58.29    9.60
   2  -1 -10   60.39   12.40
  -2  -1  10   56.49   11.20
  -2  -1  10   59.59   12.70
   2  -1 -10   49.99    9.50
   2  -1 -10   57.29   11.40
  -2  -1  10   63.19   13.40
   2  -1 -10   60.59   10.60
   2   1  -9  261.47   18.10
   2   1  -9  208.08   18.50
  -2   1   9  238.58   18.40
   2   1  -9  211.08   19.10
  -2   1   9  253.97   17.50
   2   1  -9  240.58   17.50
   2  -1  -9  255.67   15.50
   2  -1  -9  259.17   17.60
   2  -1  -9  259.57   14.30
  -2  -1   9  250.17   17.60
  -2  -1   9  260.57   19.60
   2  -1  -9  245.08   16.40
  -2  -1   9  252.37   20.20
   2   1  -8  792.92   31.60
  -2   1   8  780.42   38.20
  -2   1   8  827.12   31.80
   2   1  -8  785.52   31.70
   2   1  -8  755.52   32.80
   2   1  -8  811.62   34.60
   2  -1  -8  747.23   30.30
  -2  -1   8  813.52   37.20
   2  -1  -8  750.22   32.00
  -2  -1   8  848.92   35.90
  -2  -1   8  810.42   34.30
   2  -1  -8  785.92   26.90
   2  -1  -8  766.72   30.20
   2   1  -7  479.35   24.00
   2   1  -7  442.16   22.50
   2   1  -7  476.75   21.80
   2   1  -7  455.85   21.40
  -2   1   7  470.15   22.40
  -2   1   7  496.45   21.80
   2  -1  -7  466.35   22.20
   2  -1  -7  489.55   22.00
  -2  -1   7  487.85   23.90
   2  -1  -7  450.05   18.10
   2  -1  -7  456.55   22.10
  -2  -1   7  485.25   22.50
  -2  -1   7  467.45   24.40
  -2   1   6 1159.88   37.90
   2   1  -6 1152.08   39.10
   2   1  -6 1164.18   40.10
  -2   1   6 1192.48   37.10
   2   1  -6 1208.18   37.90
   2  -1  -6 1123.79   36.20
  -2  -1   6 1201.78   38.70
   2  -1  -6 1197.68   37.40
  -2  -1   6 1241.28   40.60
   2  -1  -6 1193.08   34.10
   2  -1  -6 1179.78   37.80
   2   1  -5 4329.27  108.39
   2   1  -5 4386.56  109.39
  -2   1   5 4322.47  105.99
   2   1  -5 4225.38  106.99
   2   1  -5 4473.25  106.79
  -2  -1   5 4447.46  109.39
   2  -1  -5 4340.17  102.89
  -2  -1   5 4411.86  107.89
   2  -1  -5 4318.67  106.09
   2  -1  -5 4318.57  105.89
   2  -1  -5 4434.46  101.69
   2  -1  -5 4296.87  104.99
   2   1  -4 1588.14   43.60
   2   1  -4 1588.84   44.30
   2   1  -4 1572.34   45.30
   2   1  -4 1603.34   45.20
  -2   1   4 1583.44   42.30
  -2   1   4 1536.95   40.80
  -2  -1   4 1621.64   45.60
   2  -1  -4 1533.15   42.00
   2  -1  -4 1595.44   43.60
   2  -1  -4 1623.84   39.10
   2  -1  -4 1537.65   42.10
  -2  -1   4 1625.74   44.90
   2  -1  -4 1618.34   41.30
  -2   1   3 3918.81   90.49
   2   1  -3 3826.12   93.09
   2   1  -3 3859.41   92.19
  -2   1   3 3915.61   89.99
   2   1  -3 3795.52   93.49
  -2  -1   3 3891.01   93.39
   2  -1  -3 3929.61   90.69
  -2  -1   3 3844.12   93.89
   2  -1  -3 3881.31   87.49
   2  -1  -3 3911.71   89.99
   2   1  -2 1359.36   36.20
   2   1  -2 1307.27   36.30
  -2   1   2 1378.46   35.00
  -2   1   2 1385.86   32.00
  -2  -1   2 1361.86   36.40
  -2  -1   2 1361.06   35.70
   2  -1  -2 1362.96   32.30
   2  -1  -2 1394.76   32.10
   2  -1  -2 1373.46   35.10
   2   1  -1  723.43   20.60
   2   1  -1  724.93   21.10
  -2   1   1  754.22   19.10
  -2   1   1  722.33   20.90
  -2  -1   1  744.23   20.80
   2  -1  -1  746.33   19.20
  -2  -1   1  751.42   21.10
   2  -1  -1  737.93   21.10
   2   1   0 4979.00  113.09
  -2   1   0 4972.70  114.49
   2   1   0 5166.48  114.09
  -2   1   0 4848.02  112.19
   2   1   0 5060.99  111.99
  -2  -1   0 5144.59  112.09
  -2  -1   0 4853.71  113.79
   2  -1   0 5021.50  114.59
   2  -1   0 4859.11  112.29
  -2   1  -1  353.46   13.00
   2   1   1  348.67   12.50
  -2   1  -1  339.97   12.70
   2   1   1  364.26   10.70
   2  -1   1  351.86   13.10
  -2  -1  -1  343.07   10.50
  -2  -1  -1  358.76   12.50
   2  -1   1  355.56   13.00
   2   1   2 1943.91   51.89
  -2   1  -2 2037.80   50.29
   2   1   2 1972.00   49.40
  -2   1  -2 1967.30   51.59
   2  -1   2 1978.60   51.79
  -2  -1  -2 1973.60   49.40
   2  -1   2 1864.41   51.29
   2   1   3 2007.90   51.19
  -2   1  -3 1955.20   51.59
   2   1   3 1978.20   54.89
  -2   1  -3 1992.90   54.89
  -2   1  -3 2064.89   54.69
  -2  -1  -3 2065.79   51.69
   2  -1   3 1991.00   50.29
   2  -1   3 1964.50   54.29
  -2   1  -4 1141.19   34.10
  -2   1  -4 1133.79   37.70
   2   1   4 1128.49   37.80
   2   1   4 1164.08   34.20
  -2   1  -4 1196.58   37.40
  -2  -1  -4 1177.68   34.10
   2  -1   4 1151.48   38.30
   2  -1   4 1191.68   37.60
  -2  -1  -4 1186.48   29.40
  -2  -1  -4 1142.19   37.50
   2  -1   4 1124.39   32.80
   2   1   5 1024.10   37.40
   2   1   5 1108.49   34.30
  -2   1  -5 1062.39   33.00
  -2   1  -5 1057.29   36.50
  -2  -1  -5 1081.09   37.70
  -2  -1  -5 1058.89   28.80
   2  -1   5 1050.79   38.30
   2  -1   5 1046.50   36.80
   2  -1   5 1074.19   32.30
  -2  -1  -5 1075.89   33.40
  -2   1  -6  175.18   14.00
   2   1   6  190.38   12.80
  -2   1  -6  180.28   11.70
  -2   1  -6  189.38   15.30
   2   1   6  185.28   16.50
   2  -1   6  182.88   15.20
  -2  -1  -6  195.48   15.00
   2  -1   6  193.58   11.60
   2  -1   6  195.58   14.60
  -2  -1  -6  191.98    9.80
  -2  -1  -6  179.08   12.40
   2   1   7  146.79   12.50
  -2   1  -7  143.39   14.10
  -2   1  -7  144.39   12.70
  -2   1  -7  131.29   14.70
   2   1   7  165.68   15.10
   2  -1   7  140.49   13.70
   2  -1   7  132.49   10.40
   2  -1   7  134.49   14.20
  -2  -1  -7  138.19    9.60
  -2   1  -8  999.10   41.10
  -2   1  -8  991.50   35.00
  -2   1  -8  982.00   42.10
   2   1   8 1094.49   45.20
   2  -1   8  985.20   43.50
  -2  -1  -8 1015.80   36.40
  -2  -1  -8 1008.30   42.60
   2  -1   8 1003.60   34.80
  -2  -1  -8 1042.10   32.40
   2  -1   8 1079.09   42.50
  -2   1  -9 1108.79   38.40
  -2   1  -9 1097.39   47.90
  -2   1  -9 1123.99   52.59
   2   1   9 1180.08   43.50
  -2  -1  -9 1132.79   47.90
   2  -1   9 1186.08   47.10
   2  -1   9 1136.29   39.10
   2  -1   9 1167.88   49.70
  -2  -1  -9 1147.59   35.90
  -2  -1  -9 1086.89   40.20
   2   1  10  205.28   20.50
   2   1  10  213.08   18.00
  -2   1 -10  242.98   15.80
  -2  -1 -10  243.88   16.90
  -2  -1 -10  244.38   15.20
   2  -1  10  206.48   21.10
   2  -1  10  226.48   20.30
   2  -1  10  224.98   15.70
   2   1  11   23.60    8.70
   2   1  11   20.60    9.60
   2  -1  11   25.60   11.00
   2  -1  11   38.10    8.40
  -2  -1 -11   21.30    7.30
   2   1  12   28.30    8.60
   2   1  12   26.20   10.50
   2  -1  12   18.40    9.50
   2  -1  12   36.30   10.50
  -2  -1 -12   20.50    9.80
   2   1  13   82.79   16.50
   2   1  13  112.39   15.30
   2  -1  13  137.19   16.30
   2  -1  13   86.39   17.70
  -2   2  14   20.00    7.60
   2   2 -14   26.70   10.10
  -2  -2  14   27.90    9.60
  -2   2  13   29.40    8.40
   2  -2 -13   23.30    6.50
  -2  -2  13   13.20    8.00
  -2  -2  13   17.00    6.30
   2   2 -12  132.59   15.40
  -2   2  12  149.39   16.10
   2  -2 -12  108.09   13.40
  -2  -2  12  109.39   13.30
  -2  -2  12  114.59   16.90
   2   2 -11  282.87   22.00
  -2   2  11  315.97   23.40
   2   2 -11  358.56   22.40
   2  -2 -11  278.97   23.60
   2  -2 -11  295.67   17.70
  -2  -2  11  284.47   21.40
   2  -2 -11  343.77   20.20
   2  -2 -11  307.87   20.70
  -2  -2  11  277.67   23.30
   2   2 -10  285.47   20.90
   2   2 -10  205.98   20.80
  -2   2  10  237.98   19.20
   2   2 -10  212.78   19.00
   2   2 -10  239.98   19.80
   2  -2 -10  243.88   16.90
  -2  -2  10  231.88   18.60
  -2  -2  10  231.68   20.70
   2  -2 -10  226.88   14.30
   2  -2 -10  232.48   17.40
   2   2  -9 1169.28   48.50
   2   2  -9 1136.79   46.20
   2   2  -9 1200.78   45.10
  -2   2   9 1221.58   44.80
   2   2  -9 1193.18   44.00
   2  -2  -9 1180.08   41.80
   2  -2  -9 1265.67   37.30
   2  -2  -9 1167.28   43.80
  -2  -2   9 1179.18   47.60
   2  -2  -9 1146.79   34.90
   2  -2  -9 1176.78   40.60
  -2  -2   9 1232.48   45.10
   2   2  -8  305.17   19.00
  -2   2   8  313.57   18.90
   2   2  -8  298.37   21.30
   2   2  -8  279.27   20.20
  -2  -2   8  310.67   21.00
   2  -2  -8  292.87   13.50
   2  -2  -8  313.27   17.80
   2  -2  -8  298.57   18.60
  -2  -2   8  311.57   19.30
   2  -2  -8  279.07   22.20
   2  -2  -8  314.67   14.30
   2   2  -7 1143.09   42.30
  -2   2   7 1127.49   38.40
   2   2  -7 1071.09   40.60
   2   2  -7 1088.89   38.90
  -2  -2   7 1164.78   42.80
   2  -2  -7 1060.99   45.50
   2  -2  -7 1146.69   32.40
  -2  -2   7 1113.39   46.00
   2  -2  -7 1076.39   36.90
   2  -2  -7 1179.78   32.00
   2  -2  -7 1096.49   35.30
  -2   2   6  242.38   13.70
   2   2  -6  215.58   14.30
   2   2  -6  222.98   15.70
   2   2  -6  219.88   15.00
   2   2  -6  229.08   14.90
   2  -2  -6  219.88   13.20
   2  -2  -6  228.88    9.50
  -2  -2   6  238.08   15.00
  -2  -2   6  224.58   15.80
   2  -2  -6  233.38   13.70
   2  -2  -6  211.28   11.80
   2  -2  -6  233.88   11.00
   2   2  -5  966.50   34.50
   2   2  -5  911.11   37.80
  -2   2   5  988.00   27.70
   2   2  -5 1007.20   41.90
   2   2  -5  944.31   32.70
   2  -2  -5  963.80   30.00
   2  -2  -5  967.20   28.70
  -2  -2   5  949.60   33.10
  -2  -2   5  995.70   34.90
   2  -2  -5  967.40   27.80
  -2   2   4 3941.41   92.39
   2   2  -4 3855.01   98.49
   2   2  -4 3907.71   97.39
   2   2  -4 3857.51   97.39
   2   2  -4 4013.70   99.99
  -2   2   4 3846.62   92.99
   2  -2  -4 3902.21   92.49
  -2  -2   4 4037.40   98.59
   2  -2  -4 4022.60   92.59
   2  -2  -4 3917.41   92.99
  -2  -2   4 3953.80   99.29
   2   2  -3  141.59    9.40
   2   2  -3  165.68   10.00
   2   2  -3  150.78    9.80
  -2   2   3  148.19    6.70
  -2   2   3  155.28    8.00
  -2  -2   3  149.59    9.70
   2  -2  -3  153.48    8.20
  -2  -2   3  147.09    9.90
  -2   2   2 7246.27  167.48
   2   2  -2 7522.15  169.98
   2   2  -2 7437.06  169.78
   2   2  -2 7321.17  169.68
  -2  -2   2 7266.77  169.48
  -2  -2   2 7509.95  170.28
   2  -2  -2 7485.75  167.98
  -2  -2   2 7251.97  169.88
  -2   2   0 8414.26  197.68
   2   2   0 8904.91  196.88
  -2   2   0 8860.41  194.68
  -2  -2   0 8654.23  196.58
   2  -2   0 8710.23  198.28
   2   2   1  671.73   20.70
  -2   2  -1  694.13   22.80
  -2   2  -1  684.83   21.30
  -2  -2  -1  672.03   20.70
   2  -2   1  671.23   22.50
   2  -2   1  698.33   23.10
   2  -2   1  676.43   21.50
  -2   2  -2  598.74   21.40
   2   2   2  620.94   19.40
  -2   2  -2  564.24   21.10
   2  -2   2  614.14   21.70
   2  -2   2  605.84   22.10
  -2  -2  -2  616.24   19.30
   2   2   3  657.33   20.80
   2   2   3  650.73   24.30
  -2   2  -3  641.94   23.20
   2   2   3  631.64   19.00
  -2   2  -3  584.34   23.50
  -2   2  -3  654.13   24.50
  -2  -2  -3  621.54   20.50
   2  -2   3  629.14   24.40
   2  -2   3  623.94   24.30
   2  -2   3  624.44   22.10
  -2   2  -4 2304.37   70.59
   2   2   4 2321.27   57.99
  -2   2  -4 2362.36   62.59
  -2   2  -4 2292.17   71.09
   2   2   4 2286.57   64.59
   2  -2   4 2357.16   65.59
  -2  -2  -4 2272.97   54.99
   2  -2   4 2317.27   65.79
  -2  -2  -4 2289.37   59.19
   2  -2   4 2298.87   61.19
  -2   2  -5  109.19   11.20
   2   2   5  135.19   12.10
  -2   2  -5  129.39   12.30
  -2   2  -5  131.19   11.90
   2   2   5  121.89    8.70
   2  -2   5  139.19   12.30
   2  -2   5  123.79   11.90
  -2  -2  -5  129.49    9.00
   2  -2   5  127.29    9.90
  -2  -2  -5  119.69    6.70
  -2   2  -6  268.27   15.80
  -2   2  -6  249.38   17.60
  -2   2  -6  255.87   17.50
   2   2   6  266.07   14.20
  -2  -2  -6  252.47   13.70
   2  -2   6  259.77   18.40
  -2  -2  -6  265.57   11.30
   2  -2   6  263.37   15.20
   2  -2   6  255.27   17.90
   2   2   7  694.93   27.00
  -2   2  -7  676.63   31.70
  -2   2  -7  681.93   32.90
   2   2   7  692.03   32.20
  -2   2  -7  708.23   28.40
  -2  -2  -7  696.03   26.50
   2  -2   7  758.12   33.60
   2  -2   7  704.73   33.90
  -2  -2  -7  696.23   22.90
   2  -2   7  681.13   27.80
   2   2   8  183.88   14.20
  -2   2  -8  204.08   18.30
  -2   2  -8  146.39   23.50
   2   2   8  167.78   17.00
  -2   2  -8  176.98   14.40
   2  -2   8  166.08   16.60
  -2  -2  -8  185.58   12.70
  -2  -2  -8  169.48   11.10
   2  -2   8  170.38   16.90
   2  -2   8  170.18   17.60
  -2   2  -9  108.09   17.60
   2   2   9  117.99   12.40
  -2   2  -9   97.79   12.40
   2   2   9  100.99   14.50
  -2  -2  -9  114.79   10.30
   2  -2   9  123.39   15.50
   2  -2   9   99.59   11.50
   2  -2   9  115.19   15.80
  -2  -2  -9  116.89   11.40
   2   2  10  259.47   18.70
   2   2  10  252.87   22.20
  -2   2 -10  265.47   17.90
   2  -2  10  235.38   22.80
  -2  -2 -10  221.58   16.40
   2  -2  10  246.48   22.10
  -2  -2 -10  276.57   15.00
   2  -2  10  239.48   17.40
   2   2  11  240.58   23.50
   2   2  11  237.18   18.90
   2  -2  11  250.47   18.50
  -2  -2 -11  216.88   17.90
   2  -2  11  274.57   24.00
   2  -2  11  288.27   30.50
  -2   2 -12  137.29   16.20
   2   2  12  130.29   13.80
   2   2  12  149.09   18.30
   2  -2  12  112.69   13.90
   2  -2  12   90.19   18.10
  -2  -2 -12  148.59   13.60
   2  -2  12  119.09   17.10
   2   2  13  246.88   19.40
  -2   2 -13  275.37   21.30
   2  -2  13  231.48   22.70
   2  -2  13  186.28   17.60
   2  -2  13  203.78   24.50
  -2   3  14  104.49   13.70
   2   3 -14  157.38   16.00
   2  -3 -14  120.69    9.90
   2   3 -13  171.88   20.30
  -2   3  13  163.98   17.80
   2  -3 -13  146.19   11.70
  -2  -3  13  139.29   17.90
  -2  -3  13  162.88   19.00
  -2   3  12  154.88   14.80
   2   3 -12  121.79   16.00
  -2  -3  12   98.69   23.80
   2  -3 -12  121.99   10.90
   2  -3 -12  160.48   12.00
   2  -3 -12  175.28   18.40
  -2   3  11  464.55   28.50
   2   3 -11  493.05   30.70
  -2  -3  11  493.45   29.50
   2  -3 -11  507.25   26.50
   2  -3 -11  521.15   30.50
   2  -3 -11  496.45   20.40
   2  -3 -11  573.54   25.40
   2  -3 -11  504.55   19.10
  -2  -3  11  493.15   32.70
   2  -3 -11  574.34   25.40
   2   3 -10  171.18   17.80
   2   3 -10  175.48   17.30
  -2   3  10  197.88   17.50
  -2  -3  10  192.38   17.70
   2  -3 -10  195.18   18.50
   2  -3 -10  178.38   10.40
   2  -3 -10  172.68   14.80
   2  -3 -10  181.28   16.10
  -2  -3  10  168.18   18.70
   2  -3 -10  206.98   11.40
   2   3  -9  189.98   17.80
   2   3  -9  222.98   20.50
  -2   3   9  204.08   16.10
   2   3  -9  165.28   17.20
   2   3  -9  193.28   18.80
   2  -3  -9  165.48   14.90
  -2  -3   9  165.38   17.50
   2  -3  -9  173.48   10.50
   2  -3  -9  185.88   16.40
   2  -3  -9  169.48   16.20
  -2  -3   9  194.78   17.10
   2  -3  -9  184.08    9.60
   2   3  -8  241.38   18.20
   2   3  -8  217.18   17.20
  -2   3   8  219.28   15.60
   2   3  -8  226.48   19.00
   2  -3  -8  205.88   13.40
  -2  -3   8  230.08   17.50
  -2  -3   8  232.78   19.30
   2  -3  -8  218.08   15.50
   2  -3  -8  215.38   15.90
   2   3  -7  543.35   26.60
  -2   3   7  532.85   23.50
   2   3  -7  529.75   25.60
   2   3  -7  549.54   28.20
   2   3  -7  518.75   26.80
   2  -3  -7  523.35   23.30
  -2  -3   7  560.24   26.60
   2  -3  -7  514.65   20.20
  -2  -3   7  519.85   27.60
   2   3  -6  342.47   19.30
  -2   3   6  367.06   17.20
   2   3  -6  360.26   27.30
   2   3  -6  352.66   20.20
   2   3  -6  349.27   20.90
  -2  -3   6  377.36   21.50
   2  -3  -6  342.07   14.30
   2   3  -5  695.93   29.10
  -2   3   5  697.23   21.80
   2   3  -5  683.53   27.60
   2   3  -5  681.83   28.30
  -2   3   5  700.13   23.80
   2   3  -5  697.53   28.10
  -2  -3   5  698.23   28.30
  -2  -3   5  700.53   29.20
   2  -3  -5  707.03   21.20
   2  -3  -5  701.23   22.00
   2   3  -4   73.59    8.40
  -2   3   4   76.29    6.30
   2   3  -4   86.89   10.60
  -2   3   4   90.29    6.40
   2   3  -4   84.89   10.70
   2  -3  -4   85.59    5.50
  -2  -3   4   75.19    8.70
  -2  -3   4   74.49    8.40
  -2   3   3 1016.40   29.40
  -2   3   3 1036.20   27.20
   2   3  -3  999.80   32.90
   2   3  -3  996.80   33.00
   2   3  -3  968.40   32.40
  -2  -3   3 1063.79   33.90
   2  -3  -3 1036.70   29.90
  -2  -3   3 1003.40   33.30
  -2   3   2 7952.20  179.58
   2   3  -2 7804.92  180.98
  -2  -3   2 7776.72  182.18
   2  -3  -2 7690.13  179.68
  -2  -3   2 7893.71  181.98
  -2  -3   2 7791.22  181.28
   2   3  -1  305.37   13.20
  -2   3   1  327.77   14.30
   2   3  -1  330.57   14.40
   2  -3  -1  345.17   15.00
  -2  -3   1  339.67   14.80
  -2  -3   1  335.27   14.50
   2   3   0  793.22   23.40
  -2   3   0  806.22   23.80
   2   3   0  798.92   25.50
  -2   3   0  828.72   27.10
  -2  -3   0  812.52   25.50
  -2  -3   0  830.72   25.80
   2  -3   0  853.11   27.60
   2   3   1 1054.19   29.90
  -2   3  -1 1002.10   30.30
   2   3   1 1023.30   26.60
   2  -3   1 1016.30   31.60
  -2  -3  -1 1006.00   29.40
   2   3   2 1133.09   31.80
  -2   3  -2 1083.19   35.50
  -2   3  -2 1104.49   34.60
   2  -3   2 1150.18   36.30
  -2  -3  -2 1143.99   31.80
  -2   3  -3  166.58   14.70
  -2   3  -3  165.68   13.80
  -2   3  -3  173.08   12.00
   2   3   3  170.18    9.20
   2  -3   3  159.88   12.10
  -2  -3  -3  156.98    9.10
   2  -3   3  155.18   12.10
  -2   3  -4 5018.90  128.09
  -2   3  -4 4870.51  126.09
   2   3   4 5035.40  116.79
  -2   3  -4 5177.98  128.69
   2   3   4 5161.58  127.79
   2   3   4 5188.68  120.49
   2  -3   4 5122.19  125.79
  -2  -3  -4 5127.29  120.29
   2  -3   4 5069.09  129.19
   2  -3   4 5250.47  129.89
  -2   3  -5  252.17   15.90
  -2   3  -5  270.17   17.50
   2   3   5  256.37   16.70
  -2   3  -5  255.57   17.10
   2   3   5  272.77   11.70
   2  -3   5  248.78   15.50
   2  -3   5  265.97   18.10
  -2  -3  -5  258.17   12.80
   2   3   6  169.18   14.80
   2   3   6  182.98   10.70
  -2   3  -6  164.78   15.10
  -2   3  -6  173.78   15.40
  -2   3  -6  160.98   13.60
   2  -3   6  204.78   16.80
   2  -3   6  168.08   13.30
  -2  -3  -6  175.28   11.00
  -2  -3  -6  162.68    9.30
   2  -3   6  179.68   15.70
   2   3   7  274.87   14.60
   2   3   7  256.77   19.20
  -2   3  -7  278.97   18.10
  -2   3  -7  257.07   19.90
  -2   3  -7  259.67   20.10
   2  -3   7  249.97   20.00
   2  -3   7  261.87   17.30
  -2  -3  -7  275.37   13.20
  -2  -3  -7  271.27   14.50
   2  -3   7  280.37   21.10
   2   3   8 1625.74   57.99
   2   3   8 1624.04   48.60
  -2   3  -8 1526.05   58.89
  -2   3  -8 1639.74   58.79
  -2   3  -8 1570.94   53.59
   2  -3   8 1663.23   53.79
   2  -3   8 1627.54   61.19
  -2  -3  -8 1605.14   44.80
  -2  -3  -8 1595.64   47.90
   2  -3   8 1661.73   60.29
   2   3   9  878.81   32.90
   2   3   9  921.01   42.30
  -2   3  -9  845.82   36.60
   2  -3   9  891.81   44.10
   2  -3   9  878.91   36.70
  -2  -3  -9  872.91   31.80
  -2  -3  -9  875.71   29.10
   2  -3   9  895.41   42.90
  -2   3 -10  152.98   15.40
   2   3  10  113.39   16.00
   2   3  10  118.19   12.80
   2  -3  10  142.39   18.90
  -2  -3 -10  134.59   12.00
   2  -3  10  116.59   13.50
   2  -3  10  103.69   16.10
   2   3  11   49.40   13.40
   2   3  11   49.99   10.40
  -2   3 -11   77.49   12.40
   2  -3  11   41.70    9.40
  -2  -3 -11   45.30    9.00
   2  -3  11   80.09   14.30
   2   3  12   57.19   10.00
   2   3  12   43.20   13.00
  -2  -3 -12   64.89   12.10
   2  -3  12   42.00   12.90
   2   3  13   27.00   10.00
   2  -3  13   49.70    9.70
  -2   4  13  126.39   17.10
  -2  -4  13  165.68   17.40
  -2  -4  13  116.99   20.90
  -2   4  12   80.09   13.30
   2   4 -12   64.79   15.90
  -2  -4  12   73.09   13.10
  -2  -4  12   96.69   15.40
  -2   4  11  215.48   19.30
   2   4 -11  236.98   22.50
  -2  -4  11  221.38   19.40
  -2  -4  11  207.48   22.60
   2  -4 -11  250.67   17.70
  -2   4  10  554.94   29.30
   2   4 -10  597.84   33.40
  -2  -4  10  556.04   34.50
   2  -4 -10  572.34   27.90
  -2  -4  10  558.54   31.60
   2  -4 -10  615.74   28.60
   2   4  -9    1.90    6.50
   2   4  -9    1.90    5.30
  -2   4   9   -1.50    4.40
   2  -4  -9   -2.80    4.20
  -2  -4   9    5.80    5.60
  -2  -4   9    1.60    5.00
   2  -4  -9   11.20    4.30
   2   4  -8   -5.90    5.90
   2   4  -8    1.00    5.90
   2   4  -8   -3.30    5.70
  -2   4   8    1.40    4.40
   2   4  -8    1.70    3.80
   2  -4  -8    6.20    4.10
   2  -4  -8   14.10    5.60
  -2  -4   8    5.00    5.20
  -2  -4   8    4.90    6.20
   2   4  -7  104.79   13.50
   2   4  -7  102.29   12.00
   2   4  -7   79.99   12.50
  -2   4   7   92.99    9.90
   2  -4  -7   73.19    7.00
  -2  -4   7   83.19   12.40
  -2  -4   7   78.79   11.20
   2   4  -6  644.74   30.50
   2   4  -6  672.63   30.50
   2   4  -6  676.93   31.70
  -2   4   6  694.73   25.60
   2  -4  -6  725.53   23.00
  -2  -4   6  715.63   32.50
  -2  -4   6  671.23   30.70
   2  -4  -6  703.73   20.70
   2   4  -5  225.28   16.00
   2   4  -5  199.08   15.90
  -2   4   5  213.68   11.70
   2   4  -5  196.98   15.30
  -2   4   5  209.88   10.90
  -2  -4   5  228.88   16.10
   2  -4  -5  222.98   11.40
  -2  -4   5  213.18   19.40
   2   4  -4  139.39   11.90
  -2   4   4  145.19    8.70
   2   4  -4  145.99   12.10
  -2   4   4  145.59    9.30
  -2  -4   4  155.98   12.70
   2  -4  -4  155.98    9.80
  -2  -4   4  158.08   12.80
  -2   4   3 1284.17   36.90
   2   4  -3 1182.78   39.50
   2   4  -3 1254.47   39.90
  -2  -4   3 1277.07   41.30
  -2  -4   3 1248.58   40.40
   2  -4  -3 1239.68   37.00
  -2   4   2 1227.08   32.40
   2   4  -2 1299.17   39.50
   2   4  -2 1215.28   37.60
  -2  -4   2 1229.58   39.60
   2  -4  -2 1236.98   33.20
   2  -4  -2 1223.48   37.50
  -2  -4   2 1227.58   38.00
   2   4  -1  834.22   27.10
   2   4  -1  846.92   28.80
  -2   4   1  851.11   28.90
  -2  -4   1  869.51   29.00
  -2  -4   1  862.61   29.90
   2  -4  -1  850.31   26.10
  -2  -4   1  867.41   27.60
   2   4   0 1465.55   41.80
   2   4   0 1425.26   38.80
  -2   4   0 1431.86   40.00
  -2   4   0 1424.36   43.60
   2  -4   0 1471.15   41.50
  -2  -4   0 1484.95   41.80
  -2   4  -1 1156.38   44.60
  -2   4  -1 1161.08   35.10
   2   4   1 1154.08   30.20
   2   4   1 1135.49   34.10
   2  -4   1 1149.98   36.40
  -2  -4  -1 1140.69   34.10
   2   4   2  151.68    9.40
  -2   4  -2  144.69   10.90
  -2   4  -2  139.79   11.50
  -2  -4  -2  161.38    9.60
   2  -4   2  155.88   12.10
  -2   4  -3  882.61   33.00
  -2   4  -3  889.31   33.10
  -2   4  -3  900.61   34.60
   2   4   3  875.31   27.10
  -2  -4  -3  861.41   27.20
   2  -4   3  865.21   33.40
   2   4   4  272.97   16.90
   2   4   4  262.07   12.50
  -2   4  -4  263.37   17.40
  -2   4  -4  266.47   16.90
  -2  -4  -4  271.07   12.80
   2  -4   4  261.57   21.10
   2  -4   4  254.87   16.50
  -2   4  -5   76.69   11.20
   2   4   5   59.19    9.70
  -2   4  -5   65.29    9.90
   2  -4   5   73.89   10.00
   2  -4   5   73.89   11.00
  -2  -4  -5   75.19    7.40
   2   4   6  196.88   16.00
  -2   4  -6  175.98   15.30
  -2   4  -6  174.98   16.60
  -2   4  -6  177.58   16.80
  -2  -4  -6  178.28   11.10
   2  -4   6  211.88   18.00
   2  -4   6  195.88   15.60
  -2   4  -7  316.67   23.50
   2   4   7  324.67   13.60
   2   4   7  300.57   20.90
  -2   4  -7  315.47   20.60
  -2   4  -7  250.47   28.40
   2  -4   7  297.17   19.80
  -2  -4  -7  287.97   14.90
   2  -4   7  301.57   22.70
  -2  -4  -7  279.57   14.40
  -2   4  -8  319.57   22.20
   2   4   8  316.17   14.80
  -2   4  -8  228.78   30.90
   2   4   8  281.77   21.50
   2  -4   8  283.87   20.20
  -2  -4  -8  273.57   14.70
   2  -4   8  307.67   23.90
   2   4   9 1167.28   49.80
  -2   4  -9 1186.38   47.40
   2   4   9 1302.17   39.00
  -2  -4  -9 1288.87   37.80
   2  -4   9 1262.27   48.10
   2  -4   9 1252.47   54.29
  -2  -4  -9 1161.98   38.50
   2   4  10    3.20    5.20
   2   4  10   11.00    7.50
   2  -4  10    6.20    5.90
   2  -4  10    1.60    6.40
  -2  -4 -10    7.70    5.20
   2   4  11  118.39   17.90
   2  -4  11  148.89   17.80
  -2  -4 -11  138.09   12.40
   2  -4  11  149.39   14.90
   2   4  12   80.49   16.00
  -2  -4 -12   53.49    9.80
   2  -4  12   63.69   17.80
   2   5 -13   31.60    9.90
  -2   5  13   16.70   10.40
  -2  -5  13   24.20    9.90
  -2  -5  13   38.40    8.10
  -2   5  12  174.68   15.40
   2   5 -12  143.99   19.10
  -2  -5  12  118.79   19.70
  -2  -5  12  127.99   16.70
  -2   5  11  113.59   15.40
  -2  -5  11   99.39   17.30
  -2  -5  11   98.19   15.20
  -2   5  10   53.99   11.40
   2   5 -10   62.69   14.30
  -2  -5  10   50.19   12.50
  -2  -5  10   77.49   17.40
  -2   5   9    7.60    5.80
   2   5  -9    5.60    7.40
  -2  -5   9    7.20    6.10
   2  -5  -9    1.50    5.50
  -2  -5   9    8.20    6.90
   2   5  -8   77.59   14.50
   2   5  -8   47.30   10.80
  -2   5   8   52.29    9.70
  -2  -5   8   59.09   11.40
  -2  -5   8   72.49   13.20
  -2   5   7  116.39   11.30
   2   5  -7  139.39   16.20
   2   5  -7  118.79   14.90
   2   5  -7  158.88   23.10
  -2  -5   7  111.29   14.40
  -2  -5   7  120.79   14.40
   2   5  -6   93.49   13.30
  -2   5   6  118.79   10.20
   2   5  -6  114.49   14.80
   2   5  -6  120.39   13.90
  -2  -5   6  124.19   13.90
  -2  -5   6  110.49   13.70
   2   5  -5    2.80    4.60
  -2   5   5    8.50    3.60
   2   5  -5    2.60    5.00
  -2   5   5    4.10    3.90
  -2  -5   5   -0.40    3.70
  -2  -5   5    0.90    4.10
   2   5  -4   20.10    6.80
  -2   5   4   30.10    5.70
   2   5  -4   19.60    7.00
  -2   5   4   14.80    4.20
  -2  -5   4   10.70    8.40
  -2  -5   4   16.30    6.50
  -2   5   3 1061.09   28.00
   2   5  -3 1013.30   42.50
   2   5  -3 1046.80   36.50
  -2   5   3 1042.20   33.80
  -2  -5   3 1010.60   36.70
   2  -5  -3 1083.29   27.90
  -2  -5   3 1035.20   38.60
  -2   5   2  360.66   14.20
   2   5  -2  335.97   17.50
   2   5  -2  365.46   18.90
  -2   5   2  364.36   18.50
  -2  -5   2  353.06   19.50
  -2  -5   2  365.36   18.00
   2  -5  -2  335.07   13.70
   2   5  -1 4893.01  122.09
  -2   5   1 4998.20  125.29
   2   5  -1 5067.49  125.09
  -2   5   1 5340.37  121.69
  -2  -5   1 5127.19  127.89
  -2  -5   1 5027.80  122.79
   2  -5  -1 5130.09  120.99
   2   5   0 1071.79   33.10
  -2   5   0 1194.58   39.50
   2   5   0 1177.08   37.00
  -2  -5   0 1193.88   37.50
   2  -5   0 1149.29   36.30
  -2   5  -1  365.86   19.30
   2   5   1  374.96   17.00
   2   5   1  375.06   13.60
  -2   5  -1  366.96   17.40
   2  -5   1  365.36   18.50
  -2  -5  -1  349.96   16.60
   2   5   2  455.95   18.40
  -2   5  -2  438.66   22.50
  -2  -5  -2  446.16   18.40
   2  -5   2  444.86   22.10
  -2   5  -3   61.09    9.50
   2   5   3   58.89    6.00
  -2   5  -3   62.49    9.90
   2   5   3   56.89    6.80
  -2   5  -3   59.89    9.50
   2   5   4  516.45   19.60
  -2   5  -4  501.65   25.50
  -2   5  -4  516.85   26.10
  -2   5  -4  516.95   26.70
  -2  -5  -4  521.35   19.80
   2  -5   4  510.55   26.80
   2  -5   4  548.85   26.80
   2   5   5  189.68   11.10
  -2   5  -5  161.98   16.90
  -2   5  -5  170.58   16.30
  -2   5  -5  192.68   16.30
   2   5   5  186.28   15.40
   2  -5   5  183.88   15.70
  -2  -5  -5  170.48   11.30
   2  -5   5  184.68   16.90
   2   5   6  445.06   25.00
  -2   5  -6  452.55   33.40
  -2   5  -6  459.15   26.50
  -2   5  -6  413.86   28.30
   2  -5   6  450.85   27.50
  -2  -5  -6  468.65   18.60
   2  -5   6  440.56   25.30
  -2   5  -7 1671.03   61.39
  -2   5  -7 1732.73   69.89
   2   5   7 1724.63   59.09
  -2   5  -7 1622.24   58.79
   2  -5   7 1665.43   58.39
  -2  -5  -7 1689.13   47.30
   2  -5   7 1747.03   63.79
   2   5   8  177.88   17.90
  -2   5  -8  161.08   19.40
   2  -5   8  155.88   18.80
  -2  -5  -8  206.98   11.60
   2  -5   8  167.68   16.80
  -2  -5  -8  201.78   12.40
   2   5   9  616.44   34.30
   2  -5   9  616.14   37.40
   2  -5   9  665.93   34.20
   2   5  10  223.78   20.70
   2  -5  10  228.98   24.60
  -2  -5 -10  303.47   14.20
   2  -5  10  263.57   20.80
   2  -5  11    7.40   10.70
   2  -5  11   15.50    7.80
  -2  -5 -11   15.20    6.70
   2   5  12   77.09   15.00
   2  -5  12   98.29   14.70
   2  -5  12   76.79   12.40
   2   6 -12  167.78   17.70
  -2   6  12  153.98   15.40
  -2  -6  12  187.58   17.50
   2   6 -11   37.60   12.70
  -2   6  11   49.50   10.20
  -2  -6  11   41.50   13.20
  -2  -6  11   67.59   16.30
  -2   6  10   43.80   11.00
   2   6 -10   33.40   11.30
  -2  -6  10   58.59   19.50
  -2  -6  10   48.80   12.90
   2   6  -9  392.26   28.30
  -2   6   9  404.16   22.60
  -2  -6   9  358.16   28.30
  -2  -6   9  355.36   26.90
   2   6  -8  153.28   18.00
  -2   6   8  160.48   12.70
  -2  -6   8  139.99   17.50
  -2  -6   8  127.69   16.20
   2   6  -7  613.74   34.90
   2   6  -7  712.33   34.00
   2   6  -7  661.13   34.20
  -2   6   7  652.93   27.20
  -2  -6   7  712.63   36.50
  -2  -6   7  660.13   34.70
  -2   6   6  515.05   22.10
   2   6  -6  526.85   29.00
   2   6  -6  495.45   29.50
  -2   6   6  519.65   20.80
   2   6  -6  488.45   37.10
  -2  -6   6  526.75   29.70
  -2  -6   6  514.35   29.40
   2   6  -5  184.48   17.70
  -2   6   5  203.68   12.80
  -2   6   5  187.98   12.70
   2   6  -5  202.58   17.30
  -2  -6   5  204.18   17.60
  -2  -6   5  203.88   17.40
  -2   6   4   19.10    6.10
   2   6  -4   22.50    6.40
   2   6  -4   13.50    6.40
  -2  -6   4   13.10    6.30
  -2  -6   4   18.10    7.00
  -2   6   3  200.28   10.00
   2   6  -3  210.38   16.60
  -2   6   3  187.18   13.70
   2   6  -3  183.18   15.10
  -2  -6   3  202.68   16.30
  -2  -6   3  204.28   16.80
  -2   6   2  483.85   22.50
  -2   6   2  505.75   19.40
   2   6  -2  466.95   22.30
   2   6  -2  467.55   23.70
  -2  -6   2  487.95   22.60
  -2  -6   2  489.15   25.60
   2  -6  -2  502.15   18.30
   2   6  -1  462.25   20.80
  -2   6   1  500.35   20.70
  -2   6   1  484.05   23.30
   2   6  -1  510.95   23.30
   2  -6  -1  489.85   20.00
  -2  -6   1  491.95   25.20
  -2   6   0  844.82   30.30
  -2   6   0  789.32   32.30
   2   6   0  779.92   29.90
   2   6   0  757.42   26.30
   2  -6   0  803.92   29.40
  -2   6  -1  197.78   14.70
   2   6   1  185.08    9.90
  -2   6  -1  191.08   15.00
   2   6   1  197.78   13.30
  -2   6  -1  209.68   15.00
   2  -6   1  194.88   14.40
  -2  -6  -1  191.68   13.30
  -2   6  -2  249.58   16.60
   2   6   2  258.67   14.50
   2   6   2  272.47   14.90
  -2   6  -2  250.37   17.70
   2  -6   2  269.37   21.40
  -2  -6  -2  265.87   17.80
  -2   6  -3  293.07   19.50
   2   6   3  304.07   14.40
   2   6   3  290.67   15.10
  -2   6  -3  279.37   19.70
  -2  -6  -3  308.97   15.80
   2  -6   3  315.27   20.40
  -2   6  -4  159.38   16.80
  -2   6  -4  116.49   14.20
   2   6   4  139.29   10.20
   2  -6   4  156.78   16.00
  -2  -6  -4  148.29   11.10
   2  -6   4  143.09   15.10
  -2   6  -5   59.89   12.00
   2   6   5   40.40    6.50
   2   6   5   45.00    9.80
  -2   6  -5   51.59   10.30
  -2   6  -5   34.00   15.30
   2  -6   5   36.90    9.30
   2  -6   5   36.20    8.70
  -2   6  -6  433.96   26.00
  -2   6  -6  381.16   25.40
   2   6   6  393.16   24.20
  -2   6  -6  449.06   26.10
  -2  -6  -6  368.56   17.20
   2  -6   6  407.46   27.20
   2  -6   6  405.06   25.90
   2   6   7   41.40   10.70
   2  -6   7   32.60   10.70
   2  -6   7   38.90   10.00
   2   6   8   81.39   13.40
   2  -6   8   90.29   15.60
   2  -6   8   99.29   14.70
  -2  -6  -8  121.19   10.80
   2   6   9  131.79   14.00
  -2  -6  -9  151.38   11.70
  -2  -6  -9  185.98   10.50
   2   6  10   89.49   12.70
   2  -6  10   61.69   14.90
   2   6  11  125.49   13.40
   2  -6  11   85.39   11.50
  -2   7  11  193.08   16.80
   2   7 -11  167.38   20.70
  -2  -7  11  170.58   21.60
  -2  -7  11  221.38   23.70
  -2   7  10  388.06   23.40
   2   7 -10  418.46   30.50
  -2  -7  10  394.46   30.60
  -2  -7  10  389.56   31.60
  -2   7   9  293.17   19.90
   2   7  -9  287.47   25.30
  -2  -7   9  253.07   24.70
  -2  -7   9  300.27   25.50
   2   7  -8   56.79   13.50
  -2  -7   8   59.89   13.80
  -2  -7   8   88.49   13.90
   2   7  -7  105.29   15.40
  -2   7   7  119.59   12.10
  -2  -7   7  122.39   17.20
  -2  -7   7   94.89   15.40
   2   7  -6  100.89   15.30
   2   7  -6  122.89   19.50
  -2   7   6   99.09   10.90
  -2  -7   6  103.49   14.80
  -2  -7   6  105.99   15.00
   2   7  -5   81.49   13.00
  -2   7   5   74.79    9.10
  -2  -7   5   82.09   13.60
  -2  -7   5   70.49   12.30
   2   7  -4   26.60    9.80
  -2  -7   4   22.20    7.30
  -2  -7   4   15.50    7.30
  -2   7   3  832.42   27.00
  -2   7   3  852.51   32.90
   2   7  -3  805.92   34.00
   2   7  -3  868.11   36.50
  -2  -7   3  845.12   38.40
  -2  -7   3  892.21   35.60
  -2   7   2 1107.19   34.70
   2   7  -2 1046.10   40.40
   2   7  -2 1044.20   38.20
   2  -7  -2 1084.19   32.80
  -2  -7   2 1045.70   43.10
  -2  -7   2 1105.99   39.40
   2   7  -1  274.57   18.60
  -2   7   1  279.37   16.60
  -2   7   1  271.07   18.20
   2   7  -1  297.27   18.70
   2  -7  -1  267.77   15.10
  -2  -7   1  275.07   20.20
  -2   7   0  573.84   25.70
   2   7   0  504.25   21.00
   2   7   0  542.55   25.10
  -2   7   0  535.15   23.90
  -2   7   0  548.65   27.60
   2  -7   0  549.35   24.20
  -2  -7   0  520.45   27.50
   2   7   1  104.99    7.10
  -2   7  -1  112.69   13.10
  -2   7  -1   88.19   11.20
  -2   7  -1  107.59   13.20
   2   7   1   83.49   10.70
   2   7   1   98.49   10.90
   2  -7   1  108.79   12.00
   2   7   2  454.45   21.40
   2   7   2  468.95   21.60
  -2   7  -2  467.05   39.50
  -2   7  -2  482.65   26.10
  -2   7  -2  430.06   23.90
   2  -7   2  483.95   25.40
   2   7   3  590.64   26.60
  -2   7  -3  563.04   29.60
  -2   7  -3  544.75   28.60
  -2   7  -3  607.24   30.20
   2  -7   3  627.94   30.80
  -2  -7  -3  569.94   23.70
   2   7   4   16.50    5.40
  -2   7  -4   32.60    8.80
   2  -7   4   10.70    6.90
   2  -7   4    5.70    5.70
   2   7   5  293.47   21.00
   2   7   5  271.17   14.70
  -2   7  -5  333.97   23.70
  -2  -7  -5  329.97   16.10
   2  -7   5  309.97   23.70
   2  -7   5  305.17   23.40
   2   7   6  228.08   19.10
  -2   7  -6  279.07   27.60
   2  -7   6  239.58   22.60
   2  -7   6  229.98   21.30
   2   7   7  189.28   16.30
   2  -7   7  178.78   19.50
   2  -7   7  180.78   19.30
   2   7   8   95.19   12.60
   2  -7   8   87.39   15.70
   2  -7   8   87.99   18.20
  -2   7  -9   90.69   17.40
   2   7   9   91.89   13.60
   2  -7   9   74.59   17.90
   2   7  10  257.67   22.10
  -2   7 -10  208.88   25.70
   2  -7  10  244.88   23.40
   2  -7  10  277.87   26.60
   2   8 -10   17.10    9.90
  -2   8  10   20.50    9.00
  -2  -8  10   22.60   11.70
  -2  -8  10   15.30    7.60
   2   8  -9   46.90   14.00
  -2   8   9   60.39   11.60
  -2  -8   9   52.49   13.90
  -2  -8   9   80.89   14.30
   2   8  -8   14.50    8.90
  -2  -8   8    5.20    7.60
  -2  -8   8    3.80    7.40
   2   8  -7  292.67   32.10
  -2   8   7  272.07   17.80
  -2  -8   7  316.97   28.40
  -2  -8   7  291.07   25.10
  -2   8   6   30.20    7.60
   2   8  -6   15.30    9.10
  -2  -8   6   19.70    8.40
  -2  -8   6   13.40    7.70
   2   8  -5   26.30    9.50
  -2   8   5   33.40    8.00
  -2  -8   5   38.50   11.70
  -2  -8   5   27.50    9.90
   2   8  -4   36.60   11.40
  -2  -8   4   23.40    8.10
  -2  -8   4   24.50    8.70
  -2   8   3   12.80    7.70
   2   8  -3   19.60    8.70
  -2   8   3   17.50    5.50
  -2  -8   3   14.20    7.30
  -2  -8   3   27.30    9.70
   2   8  -2  202.28   17.20
  -2   8   2  204.88   13.80
  -2   8   2  211.58   18.10
   2  -8  -2  206.98   12.20
  -2  -8   2  208.28   19.10
   2   8  -1  286.27   17.80
   2   8  -1  306.87   20.50
  -2   8   1  325.67   22.20
   2  -8  -1  329.07   17.60
  -2  -8   1  299.67   22.50
  -2   8   0  286.17   18.20
   2   8   0  263.37   19.00
  -2   8   0  259.07   20.00
  -2   8   0  272.57   18.50
   2   8   0  262.47   18.50
   2   8   0  249.08   14.80
   2  -8   0  286.47   17.50
  -2  -8   0  273.77   21.20
   2   8   1  386.86   21.30
  -2   8  -1  388.46   22.00
   2   8   1  376.36   21.60
  -2   8  -1  382.46   24.70
  -2   8  -1  374.46   22.70
   2  -8   1  406.26   22.70
  -2   8  -2  627.94   40.00
   2   8   2  639.54   26.70
   2   8   2  597.04   26.70
  -2   8  -2  602.94   28.80
  -2   8  -2  581.54   30.50
   2  -8   2  587.74   29.80
  -2   8  -3  966.30   40.60
   2   8   3  995.60   35.10
  -2   8  -3  991.00   42.60
   2   8   3 1001.10   34.80
   2  -8   3  989.10   42.30
   2  -8   3 1000.20   45.80
   2   8   4  543.75   23.30
  -2   8  -4  640.74   31.30
  -2   8  -4  570.64   32.70
   2   8   4  622.14   24.20
   2  -8   4  554.74   31.70
   2  -8   4  516.25   32.80
  -2   8  -5  343.77   26.60
   2   8   5  340.87   16.90
   2  -8   5  367.56   27.10
   2  -8   5  351.16   25.90
  -2   8  -6  236.98   24.00
   2   8   6  205.28   19.10
   2  -8   6  291.97   31.70
   2  -8   6  269.97   24.90
  -2   8  -7   49.10   12.30
   2   8   7   31.30   10.10
   2  -8   7   36.70   11.50
   2  -8   7   24.60    9.20
   2   8   8   88.59   13.10
  -2   8  -8   71.49   16.00
   2  -8   8   94.89   15.30
   2  -8   8   69.39   15.60
  -2   8  -9   80.89   17.90
   2   8   9   93.39   15.20
   2  -8   9   72.79   18.30
   2  -8   9  101.09   16.10
   2   9  -9  103.79   17.80
  -2   9   9  134.99   13.40
  -2  -9   9   84.39   17.50
  -2  -9   9  110.59   16.80
  -2   9   8  178.68   14.10
  -2  -9   8  143.89   20.90
  -2  -9   8  120.09   19.50
   2   9  -7   42.40   13.40
  -2  -9   7   42.50   11.30
  -2  -9   7   35.60   12.80
   2   9  -6   64.19   13.70
  -2   9   6   58.39   11.00
  -2  -9   6   59.39   13.80
  -2  -9   6   68.79   15.60
  -2   9   5  352.66   23.10
   2   9  -5  359.16   26.50
  -2   9   5  336.27   19.60
  -2  -9   5  324.77   27.40
  -2  -9   5  359.06   26.00
   2   9  -4  105.59   17.20
  -2  -9   4   90.49   14.60
  -2  -9   4   85.79   15.50
  -2   9   3  134.39   11.50
   2   9  -3  162.88   17.20
  -2  -9   3  153.48   18.20
   2   9  -2   74.19   12.60
  -2   9   2   64.99   16.30
  -2  -9   2   80.89   16.20
   2  -9  -2   79.79    8.60
  -2   9   1  268.17   17.30
   2   9  -1  256.97   17.90
   2   9  -1  294.77   23.80
   2   9  -1  248.18   19.90
  -2  -9   1  262.17   22.80
   2  -9  -1  279.77   16.30
  -2   9   0  200.88   16.60
   2   9   0  162.28   16.00
  -2   9   0  193.78   17.50
   2   9   0  163.18   15.60
  -2  -9   0  170.58   19.20
   2  -9   0  170.08   15.20
   2   9   1   64.69   12.50
  -2   9  -1   52.69   12.20
   2   9   1   57.59   19.20
  -2   9  -1   68.99   12.70
   2  -9   1   55.29   10.80
  -2  -9  -1   36.80    9.80
  -2   9  -2  476.45   27.90
   2   9   2  461.35   24.70
   2   9   2  447.06   24.00
   2  -9   2  462.85   27.10
  -2   9  -3  128.09   17.30
   2  -9   3  124.99   22.10
   2  -9   3  127.09   16.40
   2   9   4   53.19   12.20
  -2   9  -4   38.10   11.30
   2  -9   4   22.00    9.70
   2  -9   4   35.80   11.60
  -2   9  -5  151.38   28.90
   2   9   5  148.09   11.30
   2  -9   5  123.99   18.60
   2  -9   5  159.58   18.20
   2   9   6   62.69   11.20
  -2   9  -6   55.29   13.50
   2  -9   6   42.40   12.00
   2  -9   6   75.49   13.80
  -2   9  -7  110.99   20.20
   2   9   7  149.29   16.70
   2  -9   7  192.48   22.70
   2  -9   7  168.78   20.20
  -2   9  -8  147.59   19.00
   2   9   8  125.19   15.20
   2  -9   8  115.49   18.50
   2  -9   8  135.19   16.90
  -2  10   7  228.98   14.20
  -2  10   7  222.98   14.10
  -2  10   6  499.35   24.00
   2  10  -6  504.05   33.30
  -2  10   6  586.44   29.10
  -2 -10   6  487.95   36.00
  -2 -10   6  479.95   32.80
   2  10  -5   93.99   14.10
  -2  10   5   56.69   11.60
  -2 -10   5   82.59   15.60
   2  10  -4  150.68   20.00
  -2 -10   4  143.69   19.40
  -2  10   3  152.88   12.00
  -2 -10   3  106.29   16.30
   2  10  -2   91.99   12.30
  -2  10   2   67.19   11.90
  -2 -10   2   67.49   16.30
  -2  10   1   81.89   15.00
  -2  10   1   82.29   12.00
   2 -10  -1  108.09   10.20
  -2  10   0  158.18   17.80
  -2  10   0  109.89   14.50
   2  10   0  130.29   14.60
   2 -10   0  130.79   13.80
  -2 -10   0  127.49   18.10
  -2  10  -1  108.79   13.80
   2  10   1   83.49   14.00
  -2 -10  -1   82.39   15.80
   2 -10   1   87.49   13.50
   2  10   2   78.39   13.40
   2 -10   2   65.79   13.70
  -2 -10  -2   71.29   16.00
   2 -10   2   63.09   16.70
   2  10   3   72.99   12.20
  -2 -10  -3   54.49   12.50
   2 -10   3   58.09   14.80
   2 -10   3   76.19   15.00
   2  10   4  151.18   12.80
   2  10   4  153.48   19.30
   2 -10   4  125.09   18.00
   2  10   5   73.29    9.40
   2 -10   5   43.20   12.20
  -2  10  -6   68.69   14.10
   2  10   6   88.49   13.90
   2 -10   6  113.99   15.30
   2 -10   6  107.99   14.20
   2  11  -4  103.29   14.40
  -2 -11   4   93.59   16.50
   2  11  -3   60.69   11.60
  -2  11   3   75.89   11.80
   2  11  -2   97.29   12.70
  -2  11   2   69.69   11.10
   2  11  -1   94.49   13.30
  -2 -11   1   76.09   15.30
  -2  11   0   62.09   11.00
   2  11   0   41.90   10.10
   2 -11   0   87.09   12.10
  -2  11  -1  149.99   16.50
   2  11   1  160.98   16.80
   2 -11   1  154.18   20.90
   2 -11   1  137.99   15.90
  -2 -11  -1  134.49   19.50
  -2  11  -2  173.58   19.50
   2  11   2  149.59   13.90
  -2 -11  -2  146.79   18.30
   2 -11   2  105.59   19.40
   2 -11   2  162.38   15.40
   2  11   3  144.89   14.10
  -2  11  -3  184.88   16.40
  -2 -11  -3  158.68   17.20
   2 -11   3  138.89   15.10
   3   0 -14  124.69   12.80
   3   0 -14   96.39   11.60
   3   0 -13   -2.00    5.40
   3   0 -13    1.60    5.40
   3   0 -12    3.40    5.70
   3   0 -12    4.20    7.00
   3   0 -11   30.80   11.30
   3   0 -11   -4.60    8.30
   3   0 -11   11.10    8.30
   3   0 -10  164.58   17.50
   3   0 -10  149.09   21.20
   3   0 -10  182.28   15.30
   3   0 -10  189.18   16.80
   3   0 -10  196.48   17.50
  -3   0   9    2.60    4.90
   3   0  -9   14.00    4.60
  -3   0   9   -1.70    4.30
   3   0  -9   -2.20    5.00
   3   0  -9    4.20    5.30
  -3   0   8 1043.00   45.80
   3   0  -8  913.31   35.40
  -3   0   8 1003.40   48.30
   3   0  -8  952.90   36.60
   3   0  -8  939.21   37.30
   3   0  -8  956.60   33.90
   3   0  -8  973.00   33.80
  -3   0   8 1027.70   43.00
   3   0  -7   -4.90    2.90
  -3   0   7   -0.10    3.30
   3   0  -7   -1.30    3.00
   3   0  -7   -1.90    2.90
   3   0  -7   -0.40    3.50
   3   0  -7    3.50    3.50
   3   0  -6 1601.24   47.40
   3   0  -6 1556.04   43.70
   3   0  -6 1471.15   46.30
  -3   0   6 1573.54   47.00
   3   0  -6 1532.15   44.80
   3   0  -5    1.30    2.50
   3   0  -5    0.50    2.40
   3   0  -5    1.80    2.50
  -3   0   5    0.10    2.30
   3   0  -5    0.70    2.70
   3   0  -5    0.70    2.60
   3   0  -4 3688.53   85.99
   3   0  -4 3526.75   87.49
   3   0  -4 3699.03   88.09
  -3   0   4 3665.23   85.89
  -3   0   4 3436.06   88.59
   3   0  -4 3550.24   88.79
   3   0  -4 3597.94   88.79
  -3   0   3    2.20    2.00
   3   0  -3    1.70    3.10
   3   0  -3   -0.70    1.90
  -3   0   3    4.40    2.30
  -3   0   3    3.00    2.50
   3   0  -3    2.10    2.20
  -3   0   2 8739.62  196.38
   3   0  -2 8477.95  197.88
  -3   0   2 8963.60  198.28
   3   0  -2 8632.04  198.28
   3   0  -2 8950.80  196.78
  -3   0   1    4.10    2.30
   3   0  -1    2.90    2.20
   3   0  -1    7.30    3.10
  -3   0   1    2.30    2.20
  -3   0   0 4260.07  100.79
  -3   0   0 4329.37  100.69
   3   0   0 4516.05  101.29
   3   0   0 4250.87  100.69
   3   0   1    1.70    2.60
  -3   0  -1    3.10    2.40
  -3   0  -1    1.90    2.10
   3   0   1    2.70    2.50
   3   0   1    4.00    2.60
  -3   0  -2 2442.56   62.69
  -3   0  -2 2489.25   60.19
  -3   0  -2 2528.25   64.59
   3   0   2 2450.55   64.39
   3   0   2 2443.16   60.09
  -3   0  -3    2.40    2.40
   3   0   3   -0.50    2.20
   3   0   3    1.40    3.00
   3   0   3   -0.90    1.30
  -3   0  -3    0.10    2.00
   3   0   3   -1.60    2.00
  -3   0  -3    1.60    2.70
   3   0   4 8982.10  210.28
  -3   0  -4 9195.48  205.28
   3   0   4 8864.01  202.28
   3   0   4 9108.39  214.28
  -3   0  -5    1.90    3.00
   3   0   5    1.60    2.10
   3   0   5   -0.90    2.80
  -3   0  -5   -3.00    3.30
   3   0   5    0.20    3.60
  -3   0  -6   52.89    6.60
   3   0   6   45.50    5.20
   3   0   6   44.20    8.90
   3   0   7    3.90    4.90
   3   0   7    2.50    2.80
   3   0   7    4.60    5.20
  -3   0  -7   -0.40    3.50
  -3   0  -7   -0.20    5.20
   3   0   8   57.89   11.80
   3   0   8   65.59   12.40
   3   0   8   56.79    7.30
  -3   0  -8   52.49    7.90
  -3   0  -9    6.20    6.10
  -3   0  -9   14.40    3.90
   3   0   9    2.00    6.80
   3   0   9   -1.90    5.10
   3   0  10   67.79   12.80
   3   0  10   83.29   17.70
   3   0  11    2.40    7.60
   3   0  11   -3.20    6.70
   3   0  12   98.79   14.60
   3   0  12   98.89   16.80
   3   0  13   11.60    7.70
   3   1 -14  160.38   12.00
   3  -1 -14  103.29   13.60
   3  -1 -14  129.09   11.30
   3   1 -13  111.69   16.10
   3   1 -13  145.99   17.30
   3  -1 -13  178.38   13.10
   3  -1 -13  136.59   15.00
   3   1 -12  422.66   36.80
   3   1 -12  458.05   27.60
   3   1 -12  444.16   26.70
  -3   1  12  471.75   30.40
  -3  -1  12  466.55   29.90
   3  -1 -12  430.56   27.10
   3  -1 -12  486.45   24.20
   3  -1 -12  478.15   27.40
  -3   1  11  157.48   17.00
   3   1 -11  160.68   17.20
   3   1 -11  152.58   15.80
   3  -1 -11  174.48   14.20
   3  -1 -11  147.69   19.30
   3  -1 -11  170.28   16.90
  -3  -1  11  166.28   18.10
   3  -1 -11  166.18   16.30
  -3  -1  11  180.38   16.80
  -3   1  10  194.68   17.60
   3   1 -10  179.38   16.20
   3   1 -10  145.19   22.00
   3   1 -10  182.08   16.00
   3   1 -10  192.78   16.50
   3   1 -10  194.58   26.30
   3  -1 -10  169.38   13.00
   3  -1 -10  153.98   15.10
   3  -1 -10  172.48   13.70
   3  -1 -10  143.79   16.70
  -3  -1  10  164.58   15.60
   3  -1 -10  150.98   16.60
  -3  -1  10  171.48   17.40
   3   1  -9  219.58   16.40
   3   1  -9  188.58   16.40
   3   1  -9  188.58   17.60
  -3   1   9  198.28   16.30
   3   1  -9  180.08   17.30
   3  -1  -9  209.78   13.70
   3  -1  -9  212.78   16.40
  -3  -1   9  200.18   16.10
  -3  -1   9  213.68   17.90
   3  -1  -9  203.78   13.40
   3  -1  -9  192.08   15.40
   3  -1  -9  191.78   16.00
   3   1  -8  243.58   17.00
   3   1  -8  253.67   16.60
   3   1  -8  239.28   17.90
   3   1  -8  260.87   17.60
  -3   1   8  258.07   17.10
  -3  -1   8  277.17   18.90
   3  -1  -8  275.37   17.30
   3  -1  -8  257.47   16.70
   3  -1  -8  249.88   16.30
   3  -1  -8  238.28   14.00
   3  -1  -8  255.57   14.00
  -3  -1   8  252.97   17.00
  -3   1   7  545.55   23.90
   3   1  -7  545.55   25.20
   3   1  -7  538.95   25.60
   3   1  -7  553.44   23.70
   3   1  -7  539.95   24.40
  -3  -1   7  557.54   24.90
   3  -1  -7  540.35   19.90
   3  -1  -7  544.95   27.40
   3  -1  -7  530.35   23.50
   3  -1  -7  525.55   21.00
  -3  -1   7  554.54   26.40
   3   1  -6  381.76   18.60
  -3   1   6  369.26   17.50
   3   1  -6  380.46   17.80
   3   1  -6  388.56   20.30
   3   1  -6  372.56   19.10
   3  -1  -6  384.56   17.70
  -3  -1   6  378.46   19.80
  -3  -1   6  386.26   19.10
   3  -1  -6  367.86   22.60
   3  -1  -6  371.06   14.60
   3  -1  -6  375.66   16.30
   3  -1  -6  365.46   17.40
   3   1  -5  171.78   11.60
  -3   1   5  201.98   11.10
   3   1  -5  181.18   12.20
   3   1  -5  180.88   11.10
   3   1  -5  189.88   12.50
  -3  -1   5  184.28   12.10
   3  -1  -5  179.68   10.40
  -3  -1   5  185.78   12.60
   3  -1  -5  183.78   11.00
   3  -1  -5  181.78   11.50
   3  -1  -5  184.88   10.40
   3  -1  -5  183.58    8.80
   3   1  -4  311.67   15.20
  -3   1   4  305.37   13.10
  -3   1   4  314.17   11.00
   3   1  -4  302.67   14.70
  -3  -1   4  314.37   14.00
   3  -1  -4  304.07   14.40
  -3  -1   4  296.17   14.60
   3  -1  -4  313.67   13.40
   3  -1  -4  318.47   11.10
   3   1  -3 4937.81  114.69
   3   1  -3 4809.82  115.39
  -3   1   3 4886.91  110.29
  -3   1   3 4963.90  114.09
   3   1  -3 4798.72  116.19
  -3  -1   3 4810.52  115.89
   3  -1  -3 4923.71  114.29
  -3  -1   3 4779.62  114.19
   3  -1  -3 4751.12  110.89
   3  -1  -3 5028.10  110.59
   3   1   0 2437.56   59.49
  -3   1   0 2511.55   59.19
  -3   1   0 2323.47   59.59
   3   1   0 2372.76   56.29
   3   1   0 2472.65   58.49
   3  -1   0 2351.26   59.79
  -3  -1   0 2418.76   59.29
   3  -1   0 2347.86   57.69
  -3  -1   0 2396.16   56.39
  -3  -1   0 2428.26   58.19
   3   1   1  607.84   19.90
  -3   1  -1  613.14   20.00
  -3   1  -1  595.94   20.00
   3   1   1  592.54   17.70
   3  -1   1  587.64   19.90
  -3  -1  -1  604.24   19.80
   3  -1   1  614.74   20.20
  -3  -1  -1  591.24   17.60
   3   1   2 1687.03   45.30
  -3   1  -2 1652.83   45.00
   3   1   2 1696.83   41.40
   3   1   2 1701.13   47.90
  -3   1  -2 1641.44   46.50
  -3  -1  -2 1717.63   41.50
  -3  -1  -2 1677.23   45.20
   3  -1   2 1734.43   45.40
   3  -1   2 1689.33   47.00
   3  -1   2 1708.63   47.30
   3   1   3 2309.27   54.69
   3   1   3 2316.37   59.39
   3   1   3 2318.07   63.59
  -3   1  -3 2260.57   59.19
  -3   1  -3 2244.98   62.29
  -3  -1  -3 2282.87   59.69
   3  -1   3 2318.77   63.29
   3  -1   3 2266.47   56.99
   3  -1   3 2312.57   62.49
  -3  -1  -3 2336.37   54.79
   3   1   4 1226.88   36.70
  -3   1  -4 1222.18   36.20
  -3   1  -4 1174.68   45.00
   3   1   4 1226.08   40.80
  -3  -1  -4 1217.18   36.90
   3  -1   4 1182.58   40.50
   3  -1   4 1205.38   39.40
   3  -1   4 1207.78   34.00
  -3   1  -5  387.76   20.60
  -3   1  -5  388.26   17.40
   3   1   5  372.96   20.80
   3   1   5  371.96   17.70
   3  -1   5  371.76   15.50
  -3  -1  -5  368.26   20.40
  -3  -1  -5  374.86   18.30
   3  -1   5  369.96   19.80
   3  -1   5  392.46   21.30
  -3   1  -6 1225.18   38.40
   3   1   6 1264.57   45.80
   3   1   6 1190.28   40.00
  -3   1  -6 1181.38   44.00
  -3  -1  -6 1252.17   32.70
  -3  -1  -6 1212.88   44.50
  -3  -1  -6 1200.38   39.60
   3  -1   6 1219.78   36.80
   3  -1   6 1226.78   45.50
  -3   1  -7  293.07   17.20
   3   1   7  320.37   21.70
  -3   1  -7  283.17   21.00
   3   1   7  277.07   17.60
  -3  -1  -7  288.17   12.80
   3  -1   7  281.37   21.00
   3  -1   7  315.67   20.60
   3  -1   7  292.97   15.10
  -3  -1  -7  282.97   16.90
  -3  -1  -7  285.47   20.60
  -3   1  -8 2487.85   82.89
   3   1   8 2651.63   76.29
   3   1   8 2589.94   82.59
  -3   1  -8 2599.54   71.49
   3  -1   8 2597.64   69.89
   3  -1   8 2547.05   79.39
   3  -1   8 2584.74   83.49
  -3  -1  -8 2663.33   96.69
  -3  -1  -8 2513.15   73.69
   3   1   9  535.15   32.20
   3   1   9  591.24   29.20
  -3   1  -9  560.34   24.30
  -3  -1  -9  528.35   26.40
   3  -1   9  566.24   33.70
   3  -1   9  516.35   30.00
  -3  -1  -9  548.35   31.50
   3  -1   9  547.55   23.90
  -3   1 -10   45.40    8.60
   3   1  10   28.10   11.10
   3   1  10   43.80   10.20
   3  -1  10   35.90   10.50
   3  -1  10   49.90   14.60
   3  -1  10   29.40   11.30
  -3   1 -11  182.68   14.40
   3   1  11  165.28   16.00
   3   1  11  134.09   19.40
   3  -1  11  148.49   22.70
  -3  -1 -11  125.69   15.00
   3  -1  11  145.69   13.90
   3  -1  11  160.98   18.30
  -3   1 -12  167.68   14.60
   3   1  12  125.29   15.60
   3  -1  12  103.09   25.00
   3  -1  12  167.18   19.50
   3   1  13  238.78   25.50
   3   1  13  232.58   21.60
   3  -1  13  172.08   23.60
   3  -1  13  201.08   22.30
   3   2 -14  219.58   21.00
   3   2 -14  249.68   22.50
  -3  -2  14  177.68   20.20
   3  -2 -14  199.38   15.60
   3   2 -13  235.68   18.20
   3   2 -13  274.67   19.40
  -3   2  13  224.08   20.20
  -3  -2  13  198.28   22.20
  -3  -2  13  170.78   18.00
   3   2 -12   29.90   10.30
   3   2 -12   35.90   10.50
  -3   2  12   25.70    9.30
   3  -2 -12   60.79    9.40
   3  -2 -12   30.00    7.50
  -3  -2  12   20.00   10.60
  -3  -2  12   25.50    9.10
   3   2 -11  112.89   15.50
  -3   2  11  108.59   14.50
   3  -2 -11  107.09   10.80
  -3  -2  11  112.69   14.00
  -3  -2  11  122.69   16.50
   3  -2 -11  136.29   14.20
   3  -2 -11  105.99   11.10
   3   2 -10  129.69   20.80
   3   2 -10   77.29   15.60
   3   2 -10   90.99   14.20
   3   2 -10   96.99   15.30
  -3   2  10  104.79   13.10
  -3  -2  10   86.29   14.00
   3  -2 -10  100.19   10.00
   3  -2 -10   97.59   13.30
   3  -2 -10   98.59    9.90
   3  -2 -10   75.49   13.20
  -3  -2  10   82.29   12.40
   3  -2 -10   88.59   14.30
   3   2  -9   70.89   13.70
  -3   2   9   85.09   11.00
   3   2  -9   90.29   14.80
   3   2  -9   93.29   13.30
   3   2  -9  112.59   14.20
  -3  -2   9  108.19   12.90
  -3  -2   9   98.59   13.30
   3  -2  -9  106.69   12.40
   3  -2  -9   83.99   11.80
   3  -2  -9  105.49    9.60
   3  -2  -9   95.49   12.60
   3  -2  -9   92.09    8.90
   3   2  -8  190.08   16.70
   3   2  -8  170.38   16.00
   3   2  -8  182.58   14.70
   3   2  -8  167.18   14.90
  -3   2   8  188.88   14.10
   3  -2  -8  176.08   14.00
  -3  -2   8  180.78   16.20
   3  -2  -8  175.38   10.10
   3  -2  -8  180.98   11.50
  -3  -2   8  170.08   14.80
   3  -2  -8  191.58   13.50
   3  -2  -8  184.08   13.60
   3   2  -7  300.17   18.40
   3   2  -7  307.87   18.50
   3   2  -7  288.47   18.50
  -3   2   7  329.67   17.00
   3   2  -7  307.87   19.80
   3  -2  -7  299.57   14.40
   3  -2  -7  282.37   15.90
   3  -2  -7  313.37   16.30
  -3  -2   7  316.87   19.00
   3  -2  -7  301.77   12.30
  -3  -2   7  331.27   20.40
   3  -2  -7  307.97   17.40
   3   2  -6  184.78   13.90
   3   2  -6  188.98   13.30
   3   2  -6  182.68   14.10
  -3   2   6  201.38   11.80
  -3   2   6  181.48   10.60
   3   2  -6  190.98   13.70
  -3  -2   6  183.28   14.10
  -3  -2   6  196.18   14.00
   3  -2  -6  199.28   11.10
   3  -2  -6  192.08    8.10
   3  -2  -6  189.48   11.30
   3  -2  -6  184.48   12.80
   3  -2  -6  181.48   11.10
   3   2  -5 1280.87   48.00
  -3   2   5 1338.87   37.60
   3   2  -5 1317.77   43.70
   3   2  -5 1343.27   43.50
   3   2  -5 1338.97   41.20
  -3   2   5 1357.46   37.40
   3  -2  -5 1303.47   36.80
   3  -2  -5 1367.86   37.90
   3  -2  -5 1305.27   37.80
  -3  -2   5 1313.77   43.20
  -3  -2   5 1397.76   43.10
  -3   2   4  440.56   16.70
  -3   2   4  427.76   14.40
   3   2  -4  432.76   18.60
   3   2  -4  435.16   19.40
   3   2  -4  428.86   18.80
   3  -2  -4  451.65   16.90
   3  -2  -4  430.96   14.50
  -3  -2   4  446.66   20.00
  -3  -2   4  453.45   19.50
   3   2  -3  290.47   14.10
  -3   2   3  284.97   12.70
   3   2  -3  281.17   14.20
   3   2  -3  290.17   14.00
  -3  -2   3  297.07   14.50
  -3  -2   3  300.67   13.90
   3  -2  -3  295.67   13.00
   3   2  -2 2586.44   65.79
  -3   2   2 2634.54   60.29
   3   2  -2 2582.24   65.29
   3   2  -2 2562.44   65.49
  -3   2   2 2571.54   64.69
   3  -2  -2 2643.34   65.29
  -3  -2   2 2493.15   65.29
  -3  -2   2 2597.94   65.59
  -3   2   1 6507.25  148.39
  -3   2   1 6770.62  155.28
   3   2  -1 6812.52  155.08
   3   2  -1 6620.04  153.48
   3  -2  -1 6636.54  155.28
  -3  -2   1 6719.23  154.68
  -3  -2   1 6820.02  154.08
   3   2   0 2344.17   55.99
  -3   2   0 2276.17   55.49
   3   2   0 2349.06   57.09
  -3   2   0 2297.37   59.39
   3   2   0 2314.87   58.39
  -3  -2   0 2168.88   57.79
  -3  -2   0 2360.96   56.19
   3  -2   0 2316.67   55.69
   3   2   1   24.20    4.40
  -3   2  -1   26.50    5.80
  -3   2  -1   21.40    3.90
   3   2   1   25.40    3.70
   3  -2   1   26.50    5.10
   3  -2   1   25.70    4.30
  -3  -2  -1   27.40    5.10
  -3  -2  -1   24.50    3.00
   3   2   2  677.33   22.90
  -3   2  -2  667.33   24.10
  -3   2  -2  706.93   24.70
  -3  -2  -2  704.53   18.00
   3  -2   2  713.73   24.90
  -3  -2  -2  708.13   23.10
   3  -2   2  728.63   25.30
   3  -2   2  710.53   25.90
   3   2   3  112.29   10.00
  -3   2  -3  101.49    9.20
   3   2   3   99.19    7.90
  -3   2  -3   99.89    8.80
   3  -2   3  106.09    9.70
  -3  -2  -3   91.29    7.60
   3  -2   3   90.69    9.00
  -3   2  -4  599.04   24.20
   3   2   4  615.74   21.60
   3   2   4  635.64   26.80
  -3   2  -4  642.14   26.60
   3  -2   4  602.84   26.50
   3  -2   4  640.14   26.90
   3  -2   4  630.34   23.00
   3   2   5  619.44   22.60
   3   2   5  610.04   27.60
  -3   2  -5  556.14   26.70
  -3   2  -5  597.14   24.50
   3  -2   5  608.04   37.60
  -3  -2  -5  604.94   23.10
   3  -2   5  614.04   23.30
   3  -2   5  576.44   32.00
   3   2   6  173.48   12.00
  -3   2  -6  146.99   15.10
   3   2   6  174.78   15.30
  -3   2  -6  173.68   13.10
  -3  -2  -6  167.48    7.80
  -3  -2  -6  158.88   11.60
   3  -2   6  157.78   11.80
   3  -2   6  167.08   15.40
   3  -2   6  175.28   15.30
   3   2   7   17.50    6.00
  -3   2  -7   16.80    6.50
  -3   2  -7   28.50    8.90
   3   2   7   22.00    6.60
  -3  -2  -7   16.40    6.00
  -3  -2  -7   25.40    4.30
   3  -2   7   24.30    6.50
   3  -2   7    9.40    5.90
   3  -2   7   13.00    6.80
  -3   2  -8  282.27   22.40
   3   2   8  274.87   17.80
   3   2   8  273.97   21.60
  -3   2  -8  261.47   17.30
  -3  -2  -8  242.38   12.00
   3  -2   8  245.98   16.20
   3  -2   8  264.57   21.80
  -3  -2  -8  251.07   16.20
   3  -2   8  267.77   21.10
   3   2   9  427.96   28.40
  -3   2  -9  438.46   23.30
   3   2   9  436.56   24.00
   3  -2   9  435.66   29.90
  -3  -2  -9  463.85   17.90
  -3  -2  -9  423.36   22.40
   3  -2   9  426.06   22.10
   3  -2   9  438.56   28.20
   3   2  10  159.98   19.30
  -3   2 -10  181.28   15.60
   3   2  10  171.68   16.10
   3  -2  10  172.48   19.40
   3  -2  10  157.18   13.90
   3  -2  10  157.78   19.20
  -3  -2 -10  179.98   15.40
   3   2  11    1.10    5.30
   3   2  11   11.30    6.60
  -3   2 -11   20.00    8.60
   3  -2  11    9.60    7.40
  -3  -2 -11   -5.70    6.10
   3  -2  11    3.30    5.00
   3  -2  11   -6.30    6.40
  -3   2 -12   20.20    8.50
   3   2  12   15.30    5.50
   3  -2  12   12.50    8.90
   3  -2  12   12.40    6.40
   3  -2  12   -1.70    7.60
   3   2  13  110.39   17.00
   3  -2  13   83.99   17.60
   3  -2  13  111.29   15.90
   3  -2  13  113.99   13.20
   3   3 -14  112.69   15.70
  -3  -3  14  135.59   15.00
  -3  -3  14   99.29   18.30
   3  -3 -14  158.68    9.60
   3   3 -13  517.95   39.70
  -3   3  13  474.85   30.70
  -3  -3  13  438.66   33.70
   3  -3 -13  584.44   21.10
   3   3 -12  245.58   22.40
  -3   3  12  221.98   19.80
  -3  -3  12  194.78   20.10
   3  -3 -12  254.37   13.40
  -3  -3  12  233.38   32.00
   3  -3 -12  274.57   12.30
   3   3 -11  119.29   16.90
  -3   3  11  157.28   15.90
  -3  -3  11  112.99   17.10
   3  -3 -11  135.29    8.90
  -3  -3  11  135.89   16.10
   3  -3 -11  130.49   10.00
   3   3 -10   15.60    8.00
  -3   3  10   28.10    8.90
  -3  -3  10   21.60    9.50
   3  -3 -10   27.50    8.50
  -3  -3  10   17.20    7.10
   3  -3 -10   24.10    4.60
   3  -3 -10   29.80    7.60
   3  -3 -10   22.80    7.80
   3   3  -9  216.28   20.90
   3   3  -9  210.18   18.70
   3   3  -9  212.58   20.40
   3   3  -9  232.38   21.20
  -3  -3   9  219.38   19.70
   3  -3  -9  209.38   15.20
   3  -3  -9  216.88   17.40
   3  -3  -9  224.48   16.80
  -3  -3   9  216.08   18.10
   3   3  -8  354.26   24.20
   3   3  -8  351.26   21.70
   3   3  -8  353.96   23.10
  -3   3   8  366.46   19.60
   3   3  -8  353.76   22.20
   3  -3  -8  357.36   16.10
   3  -3  -8  376.06   20.70
   3  -3  -8  356.26   17.70
  -3  -3   8  367.26   23.90
   3  -3  -8  354.66   19.10
  -3  -3   8  368.06   22.40
   3   3  -7  385.76   22.50
   3   3  -7  370.16   21.50
   3   3  -7  384.76   23.00
   3   3  -7  372.36   21.70
  -3   3   7  394.06   18.50
   3  -3  -7  370.56   16.10
  -3  -3   7  382.16   22.10
  -3  -3   7  356.76   22.40
   3  -3  -7  374.16   18.00
   3  -3  -7  375.56   17.20
   3  -3  -7  374.86   20.20
   3   3  -6  320.37   22.00
   3   3  -6  293.97   18.40
   3   3  -6  304.67   18.30
  -3   3   6  315.27   14.20
   3   3  -6  306.07   19.20
  -3   3   6  286.67   14.10
   3  -3  -6  287.87   13.90
  -3  -3   6  306.47   18.80
  -3  -3   6  305.67   19.20
   3  -3  -6  302.27   13.80
  -3   3   5 2267.07   58.39
   3   3  -5 2248.88   63.79
   3   3  -5 2272.77   66.39
  -3   3   5 2196.68   56.59
   3   3  -5 2182.18   64.89
   3   3  -5 2259.97   64.39
  -3  -3   5 2163.68   64.79
   3  -3  -5 2286.87   57.29
   3  -3  -5 2259.57   58.59
  -3  -3   5 2304.27   66.29
   3   3  -4  286.27   15.70
   3   3  -4  248.68   14.80
  -3   3   4  275.17   10.20
   3   3  -4  272.67   21.30
  -3   3   4  281.87   13.10
  -3  -3   4  279.47   16.00
   3  -3  -4  278.97   13.30
  -3  -3   4  262.57   15.70
  -3   3   3 1046.20   31.70
   3   3  -3 1030.70   34.00
   3   3  -3 1055.39   34.30
   3  -3  -3 1056.79   32.10
  -3  -3   3 1046.20   34.50
  -3  -3   3 1032.10   34.00
   3   3  -2 1020.70   32.70
  -3   3   2 1063.59   32.30
   3   3  -2 1019.70   32.40
   3   3  -2 1049.89   33.10
  -3  -3   2 1039.90   33.10
  -3  -3   2 1048.10   33.00
   3  -3  -2 1080.49   32.60
   3   3  -1 2041.00   54.89
  -3   3   1 2008.50   54.89
   3   3  -1 2065.99   53.29
  -3   3   1 2053.09   48.50
  -3  -3   1 2045.10   54.59
  -3  -3   1 2007.70   54.19
   3  -3  -1 2046.90   55.59
   3   3   0  717.43   23.90
  -3   3   0  665.03   20.80
  -3   3   0  667.93   24.50
   3  -3   0  670.13   24.80
  -3  -3   0  680.33   23.20
  -3  -3   0  699.93   22.60
  -3   3  -1  943.41   31.70
  -3   3  -1  939.51   29.30
  -3  -3  -1  951.00   29.50
   3  -3   1  997.90   30.30
  -3  -3  -1  939.41   27.60
   3  -3   1  958.80   32.50
   3  -3   1 1005.40   32.30
   3   3   2 4195.78  102.59
  -3   3  -2 4368.46  108.69
  -3   3  -2 4200.48  105.19
   3   3   2 4182.18   98.69
  -3  -3  -2 4225.18  102.89
   3  -3   2 4378.06  106.09
   3  -3   2 4327.47  107.69
   3   3   3  621.54   22.00
  -3   3  -3  603.24   24.80
  -3   3  -3  582.84   24.70
   3  -3   3  607.34   26.10
   3  -3   3  608.94   25.30
  -3  -3  -3  611.14   21.70
  -3   3  -4  998.10   35.70
   3   3   4 1076.99   38.10
   3   3   4  995.90   29.00
  -3   3  -4 1042.90   37.30
   3   3   4  996.90   32.10
   3  -3   4 1051.69   35.20
  -3  -3  -4 1016.00   32.00
   3  -3   4  988.00   38.10
   3  -3   4 1013.40   37.60
  -3   3  -5  327.67   20.00
  -3   3  -5  322.37   18.70
   3   3   5  344.17   24.50
   3   3   5  331.37   14.30
   3  -3   5  344.97   21.00
  -3  -3  -5  317.27   15.70
   3  -3   5  315.77   17.60
  -3   3  -6  429.56   24.90
   3   3   6  470.35   25.40
  -3   3  -6  448.46   23.10
   3   3   6  438.16   18.50
  -3  -3  -6  419.16   23.10
   3  -3   6  429.36   21.60
   3  -3   6  467.05   26.30
   3  -3   6  433.06   25.40
  -3   3  -7   72.79   13.50
   3   3   7   49.30    8.10
  -3   3  -7   56.39    9.60
   3   3   7   53.89   11.30
   3  -3   7   67.79   12.30
   3  -3   7   56.89   11.30
  -3  -3  -7   54.09    5.70
   3  -3   7   59.39    9.40
  -3  -3  -7   60.09    8.10
   3   3   8  683.83   34.90
  -3   3  -8  638.84   34.80
   3   3   8  648.84   26.90
  -3   3  -8  644.14   30.40
  -3  -3  -8  638.74   26.30
   3  -3   8  662.63   35.30
   3  -3   8  623.74   28.90
  -3  -3  -8  678.73   21.20
   3  -3   8  650.73   35.60
   3   3   9  546.45   31.90
  -3   3  -9  493.55   27.90
   3   3   9  538.55   25.40
  -3  -3  -9  507.45   24.10
   3  -3   9  540.85   27.00
   3  -3   9  557.24   34.30
   3  -3   9  553.14   33.00
  -3   3 -10   19.90    9.10
   3   3  10   23.00   10.20
   3  -3  10   24.40    7.30
   3  -3  10   35.60   10.70
   3  -3  10   33.10   11.70
  -3   3 -11   56.59   16.30
   3   3  11   62.59   11.80
   3   3  11   69.79   22.80
   3  -3  11   43.60   14.20
   3  -3  11   49.90   10.40
   3  -3  11   64.29   15.20
  -3  -3 -11   51.09   10.10
   3   3  12   96.89   15.60
   3   3  12  117.59   12.10
   3  -3  12   72.99   15.30
   3  -3  12  119.89   11.60
   3  -3  12   73.39   17.60
   3   3  13  206.38   17.70
   3   3  13  193.78   23.10
   3  -3  13  194.78   22.80
   3  -3  13  209.08   24.80
   3  -3  13  221.48   17.10
   3   4 -14  181.98   19.40
  -3   4  14  158.68   19.50
  -3  -4  14  163.38   18.50
  -3  -4  14  157.18   21.80
   3   4 -13  124.79   15.00
  -3   4  13   86.69   14.00
  -3  -4  13   59.39   16.00
  -3  -4  13   95.79   14.20
  -3   4  12  206.98   18.70
   3   4 -12  147.39   27.30
  -3  -4  12  228.28   22.00
  -3  -4  12  193.78   22.50
   3   4 -11  580.44   33.80
  -3   4  11  584.14   30.70
  -3  -4  11  526.15   32.50
  -3  -4  11  566.94   36.20
   3  -4 -11  616.64   25.80
   3  -4 -11  664.73   30.50
  -3   4  10  768.02   34.10
   3   4 -10  843.12   39.80
  -3  -4  10  765.42   41.10
   3  -4 -10  856.41   32.20
  -3  -4  10  811.02   39.60
   3  -4 -10  780.62   34.70
   3   4  -9  141.29   15.80
  -3   4   9  160.68   14.10
   3   4  -9  182.58   16.80
   3  -4  -9  183.88   11.50
   3  -4  -9  114.09   14.10
  -3  -4   9  152.28   16.20
  -3  -4   9  123.19   16.20
  -3   4   8   47.30    8.40
   3   4  -8   42.30    9.60
   3   4  -8   32.10   11.90
   3   4  -8   46.80   11.10
   3   4  -8   58.99   13.20
  -3  -4   8   45.80   10.30
  -3  -4   8   67.69   12.10
   3  -4  -8   45.60    7.90
   3   4  -7   80.09   13.20
   3   4  -7   89.99   12.50
  -3   4   7   73.69    8.60
   3   4  -7   71.29   11.40
   3   4  -7   80.49   12.70
   3  -4  -7   77.19    8.20
   3  -4  -7   72.99    7.70
  -3  -4   7   83.19   12.30
  -3  -4   7   77.89   11.60
   3   4  -6  637.84   30.10
   3   4  -6  678.13   31.70
   3   4  -6  669.73   29.90
  -3   4   6  685.73   23.80
  -3   4   6  647.94   23.10
   3   4  -6  664.33   30.10
   3  -4  -6  669.53   23.80
  -3  -4   6  713.43   32.10
   3  -4  -6  623.94   21.30
  -3  -4   6  695.93   31.10
   3   4  -5   14.80    5.10
   3   4  -5   22.70    6.90
   3   4  -5   11.80    5.10
  -3   4   5   19.70    4.00
  -3   4   5   20.70    5.30
  -3  -4   5   28.10    7.50
   3  -4  -5   25.40    4.60
  -3  -4   5   15.20    5.10
   3  -4  -5   22.80    5.30
   3   4  -4  363.16   19.40
  -3   4   4  386.66   17.00
   3   4  -4  372.66   19.80
   3   4  -4  404.16   20.40
  -3   4   4  394.36   13.40
  -3  -4   4  392.96   20.40
   3  -4  -4  385.86   17.50
  -3  -4   4  391.06   20.50
   3   4  -3 2608.44   71.59
  -3   4   3 2631.34   68.69
   3   4  -3 2593.84   73.39
  -3  -4   3 2619.64   71.79
  -3  -4   3 2619.64   71.99
  -3  -4   3 2681.43   72.89
   3  -4  -3 2587.04   69.19
  -3   4   2  899.31   30.80
   3   4  -2  921.11   30.80
   3   4  -2  915.11   31.80
  -3  -4   2  937.81   33.60
   3  -4  -2  938.91   31.50
  -3  -4   2  898.91   32.10
   3   4  -1 2166.88   58.89
  -3   4   1 2043.20   58.79
   3   4  -1 2144.19   56.49
  -3   4   1 2142.79   52.59
   3  -4  -1 2208.68   60.09
  -3  -4   1 2122.69   58.79
   3  -4  -1 2164.78   56.59
  -3  -4   1 1993.20   57.59
  -3   4   0   14.10    5.30
   3   4   0   17.70    4.00
  -3   4   0   19.70    4.10
   3   4   0   21.00    5.10
   3  -4   0   20.60    4.80
  -3  -4   0   23.40    5.40
  -3  -4   0   17.40    4.60
  -3   4  -1  228.18   14.70
   3   4   1  232.08   10.20
   3   4   1  242.68   13.00
  -3   4  -1  240.78   12.70
  -3  -4  -1  245.18   12.90
  -3  -4  -1  221.78   12.30
   3  -4   1  230.98   14.10
  -3   4  -2    8.40    3.40
   3   4   2    9.90    4.20
  -3   4  -2   11.60    4.70
  -3  -4  -2    7.40    4.00
   3  -4   2    8.50    4.40
   3   4   3   66.49    7.40
  -3   4  -3   61.39    8.90
  -3   4  -3   70.89    8.60
   3  -4   3   69.29    9.60
  -3  -4  -3   60.99    7.20
  -3   4  -4  331.97   19.60
  -3   4  -4  315.87   19.30
   3   4   4  335.47   15.80
   3   4   4  355.56   20.70
   3  -4   4  307.67   21.10
   3  -4   4  335.17   23.00
  -3  -4  -4  330.87   15.70
   3  -4   4  325.37   20.70
  -3   4  -5   12.70    6.00
   3   4   5   15.30    3.60
  -3   4  -5   22.30    7.10
   3   4   5    8.50    6.00
  -3  -4  -5   22.00    5.40
   3  -4   5   22.90    8.40
   3  -4   5   17.40    6.30
   3  -4   5   19.90    6.50
   3   4   6  112.89    8.20
   3   4   6  118.69   13.70
  -3   4  -6  125.99   14.80
  -3   4  -6  117.59   13.50
   3  -4   6  110.49   14.30
   3  -4   6  122.79   14.70
   3  -4   6  127.59   13.00
  -3  -4  -6  113.19    7.80
  -3   4  -7  655.23   31.30
   3   4   7  678.53   33.70
  -3   4  -7  651.23   34.30
   3   4   7  681.43   23.60
  -3  -4  -7  678.13   21.80
   3  -4   7  651.63   34.80
   3  -4   7  672.03   30.80
  -3  -4  -7  627.14   25.50
   3  -4   7  731.53   36.90
   3   4   8  221.38   20.30
   3   4   8  235.78   13.70
  -3   4  -8  214.98   18.80
   3  -4   8  254.77   22.20
   3  -4   8  247.48   22.10
   3  -4   8  243.28   18.30
  -3  -4  -8  243.98   11.70
  -3  -4  -8  248.18   15.00
  -3   4  -9  147.79   17.60
   3   4   9  176.48   12.90
   3   4   9  189.38   19.30
   3  -4   9  220.78   22.00
   3  -4   9  178.98   16.70
  -3  -4  -9  175.08   13.50
   3  -4   9  196.38   20.90
   3   4  10   79.59   14.00
   3   4  10   94.59   10.10
  -3  -4 -10   85.09   10.20
   3  -4  10   74.69   19.90
   3  -4  10   60.19   15.60
   3  -4  10   91.59   12.10
   3   4  11  197.08   22.40
   3   4  11  201.18   15.50
   3  -4  11  175.08   20.40
   3  -4  11  222.28   17.60
  -3  -4 -11  163.58   13.80
   3   4  12   93.99   13.70
   3  -4  12  123.79   14.50
  -3  -4 -12   53.69   18.50
   3  -4  12   92.69   18.50
  -3   5  13   75.89   11.90
  -3  -5  13   42.90   11.70
  -3  -5  13   42.60   15.10
   3   5 -12  146.79   19.80
  -3   5  12  177.38   16.40
  -3  -5  12  167.18   19.40
  -3  -5  12  188.88   22.50
   3   5 -11   20.10   12.10
  -3  -5  11   47.90    9.40
   3   5 -10  124.69   17.00
  -3   5  10  135.59   12.60
   3  -5 -10  132.59   11.20
  -3  -5  10  119.89   15.40
   3  -5 -10  138.29   15.40
  -3  -5  10  100.69   16.60
   3   5  -9  354.26   25.30
  -3   5   9  385.46   20.60
  -3  -5   9  350.36   25.30
  -3  -5   9  353.76   26.90
   3  -5  -9  419.66   15.20
   3  -5  -9  337.87   22.50
   3   5  -8 1117.99   45.90
  -3   5   8 1087.49   37.70
  -3  -5   8 1064.89   46.20
  -3  -5   8 1142.89   48.50
  -3   5   7  974.40   30.70
   3   5  -7  898.11   52.29
   3   5  -7  882.81   41.90
   3   5  -7  961.70   40.30
  -3   5   7  985.80   32.50
  -3  -5   7  964.20   42.20
  -3  -5   7  944.11   41.10
   3  -5  -7  992.20   31.50
   3   5  -6  362.66   23.30
   3   5  -6  388.06   24.80
  -3   5   6  373.86   17.30
  -3   5   6  401.86   17.00
   3   5  -6  368.36   22.90
  -3  -5   6  375.46   23.80
  -3  -5   6  397.06   24.20
   3  -5  -6  398.26   18.10
  -3   5   5  248.08   14.30
   3   5  -5  248.58   18.00
   3   5  -5  237.38   17.90
  -3   5   5  276.97   12.30
   3  -5  -5  253.67   14.70
  -3  -5   5  243.38   18.20
  -3  -5   5  227.88   17.60
  -3   5   4  253.87   11.10
  -3   5   4  250.87   14.60
   3   5  -4  245.18   17.50
   3   5  -4  242.98   16.90
   3  -5  -4  267.07   15.40
  -3  -5   4  279.87   18.50
   3   5  -3  292.57   19.10
  -3   5   3  299.87   11.50
   3   5  -3  274.67   16.80
  -3   5   3  303.57   19.40
   3  -5  -3  319.17   17.20
   3  -5  -3  293.97   12.90
  -3  -5   3  313.37   17.90
  -3  -5   3  287.57   18.30
   3   5  -2 2287.57   65.99
  -3   5   2 2337.77   65.19
   3   5  -2 2234.38   63.99
  -3   5   2 2491.55   59.89
  -3  -5   2 2355.56   67.99
  -3  -5   2 2255.77   66.09
   3  -5  -2 2384.96   60.79
  -3   5   1  502.45   17.80
   3   5  -1  448.56   19.40
  -3   5   1  457.25   21.80
   3   5  -1  458.45   21.40
  -3  -5   1  510.05   22.20
   3  -5  -1  481.45   19.80
  -3  -5   1  478.45   22.30
   3   5   0 1108.49   36.40
   3   5   0 1083.09   32.70
  -3   5   0 1051.09   37.90
  -3   5   0 1076.29   33.50
  -3  -5   0 1141.89   37.50
  -3  -5   0 1079.49   36.10
   3  -5   0 1151.78   36.80
   3   5   1 1671.23   43.40
  -3   5  -1 1577.94   47.80
  -3   5  -1 1648.34   52.69
   3   5   1 1641.44   48.50
  -3  -5  -1 1712.83   49.60
  -3  -5  -1 1677.83   53.29
   3  -5   1 1685.53   51.09
   3   5   2 1671.23   47.70
  -3   5  -2 1558.14   57.69
  -3   5  -2 1637.94   53.29
  -3  -5  -2 1664.33   47.70
   3  -5   2 1669.43   52.69
   3   5   3  898.11   30.30
  -3   5  -3  903.51   34.40
  -3   5  -3  897.91   36.20
   3  -5   3  936.81   37.00
  -3  -5  -3  892.11   30.30
  -3   5  -4   19.70    7.50
  -3   5  -4   14.90    5.20
   3   5   4   31.80    6.40
   3  -5   4   29.40    8.30
  -3  -5  -4   22.80    6.20
   3  -5   4   26.40    8.60
   3   5   5  312.47   20.90
   3   5   5  309.57   15.70
  -3   5  -5  317.87   20.60
  -3   5  -5  310.97   21.50
   3  -5   5  310.67   22.20
  -3  -5  -5  312.87   16.00
   3  -5   5  303.07   20.50
  -3   5  -6  377.26   24.40
  -3   5  -6  438.46   29.30
   3   5   6  406.16   24.90
   3  -5   6  390.66   26.40
  -3  -5  -6  355.96   26.00
   3  -5   6  416.16   24.40
  -3   5  -7  753.62   38.50
  -3   5  -7  758.42   36.60
   3   5   7  826.22   38.00
  -3  -5  -7  808.32   28.60
   3  -5   7  797.22   36.40
   3  -5   7  790.62   40.30
  -3  -5  -7  835.92   27.00
   3   5   8  437.66   28.40
   3  -5   8  452.65   31.10
   3  -5   8  448.16   27.10
  -3  -5  -8  462.55   20.20
  -3  -5  -8  479.35   18.10
   3   5   9  104.99   14.90
   3  -5   9   94.29   13.60
  -3  -5  -9   99.79   11.00
   3  -5   9   95.49   18.40
   3   5  10   11.90    8.70
   3  -5  10   24.30   11.20
   3   5  11  132.89   16.90
   3  -5  11  162.28   15.50
  -3  -5 -11  159.38   13.30
   3   5  12  375.66   25.50
   3  -5  12  337.67   23.10
  -3  -5 -12  269.17   19.70
   3  -5  12  339.47   27.50
   3   6 -12  244.58   19.70
  -3   6  12  210.88   16.70
  -3  -6  12  169.48   24.10
   3   6 -11  245.18   23.20
  -3   6  11  241.38   18.80
  -3  -6  11  232.98   25.20
  -3  -6  11  237.48   22.20
  -3   6  10   19.40    7.20
   3   6 -10    5.00    6.60
   3  -6 -10   40.20    9.80
  -3  -6  10   21.10   10.00
  -3   6   9  507.55   24.40
   3   6  -9  453.95   30.10
  -3  -6   9  518.55   32.20
  -3  -6   9  491.85   32.80
   3   6  -8   76.29   14.10
  -3   6   8   73.69    9.60
  -3  -6   8   49.50   10.90
  -3  -6   8   65.39   13.50
   3   6  -7  107.59   14.90
   3   6  -7  135.79   15.10
  -3   6   7  107.39   10.20
  -3  -6   7  111.99   15.30
  -3  -6   7  103.09   14.90
   3   6  -6   61.49   12.80
  -3   6   6   47.30    6.90
   3   6  -6   49.10   11.30
  -3  -6   6   31.80    8.20
  -3  -6   6   39.70   11.10
   3   6  -5  252.97   19.60
  -3   6   5  265.47   13.00
  -3   6   5  288.37   15.20
  -3  -6   5  275.37   20.00
  -3  -6   5  277.07   20.70
  -3   6   4   51.19    6.30
  -3   6   4   64.29   10.60
   3   6  -4   54.89   10.80
   3   6  -4   59.19   10.60
  -3  -6   4   53.89   10.40
  -3  -6   4   58.99   10.20
   3   6  -3  343.97   20.80
   3   6  -3  303.87   18.90
  -3   6   3  338.87   18.80
  -3   6   3  328.17   13.60
  -3  -6   3  321.37   21.00
   3  -6  -3  341.97   14.40
   3   6  -2  207.98   15.00
   3   6  -2  216.28   15.90
  -3   6   2  217.78   12.40
  -3   6   2  219.88   15.60
  -3  -6   2  227.58   17.20
   3  -6  -2  220.78   12.60
  -3   6   1  199.08   11.80
  -3   6   1  213.78   15.60
   3   6  -1  221.68   18.30
  -3   6   1  204.68   13.50
   3   6  -1  189.38   13.50
   3  -6  -1  199.78   13.00
  -3  -6   1  216.28   16.00
  -3  -6   1  215.18   15.20
  -3   6   0  764.22   32.00
   3   6   0  774.72   30.00
   3   6   0  747.13   26.00
  -3   6   0  739.33   27.30
   3  -6   0  757.32   29.60
  -3  -6   0  778.42   41.90
   3   6   1   10.60    3.80
  -3   6  -1    7.80    5.10
   3   6   1   18.30    5.60
  -3  -6  -1   14.00    5.70
   3  -6   1   19.50    6.60
  -3  -6  -1   13.40    5.30
  -3   6  -2  326.17   21.10
   3   6   2  345.07   17.70
  -3   6  -2  316.47   18.90
  -3  -6  -2  323.57   17.50
   3  -6   2  353.76   21.10
  -3   6  -3    8.00    6.10
   3   6   3   15.60    5.10
   3   6   3   17.20    5.70
  -3   6  -3   12.00    6.40
  -3  -6  -3   24.20    6.00
   3  -6   3    7.10    5.80
   3   6   4  337.07   17.00
  -3   6  -4  323.77   21.90
  -3   6  -4  336.27   22.40
   3  -6   4  369.76   23.90
  -3  -6  -4  344.57   17.80
   3  -6   4  349.57   23.10
   3   6   5   97.89   12.90
   3   6   5  112.79   10.10
  -3   6  -5   80.49   13.70
  -3   6  -5  106.19   13.70
  -3  -6  -5  124.19   11.40
   3  -6   5  107.59   14.60
   3  -6   5   93.99   13.30
  -3   6  -6   27.80    9.00
   3   6   6    9.10    6.80
   3  -6   6    2.70    6.70
   3  -6   6    7.10    5.40
  -3  -6  -6    0.70    5.40
   3   6   7  262.27   21.20
   3  -6   7  263.07   21.40
   3  -6   7  250.47   23.10
   3   6   8  159.78   17.10
   3  -6   8  126.49   18.70
  -3  -6  -8  181.58   11.30
   3  -6   8  127.29   15.20
   3   6   9  150.28   15.30
   3  -6   9  101.79   15.80
   3  -6   9  111.89   18.90
   3   6  10  154.58   21.00
   3  -6  10  119.39   21.60
  -3  -6 -10  180.48   14.00
   3  -6  10  147.59   21.50
   3   6  11   22.10   10.00
   3  -6  11   34.40   10.80
  -3  -7  12  173.38   18.80
   3   7 -11   10.80    9.00
  -3  -7  11   16.10   11.10
  -3  -7  11    7.40    8.70
  -3   7  10  505.85   25.40
   3   7 -10  487.75   33.50
  -3  -7  10  474.55   32.70
  -3  -7  10  514.25   36.40
   3   7  -9  144.79   19.10
  -3   7   9  154.68   14.00
  -3  -7   9  136.69   18.40
  -3  -7   9  150.38   21.20
   3   7  -8  126.99   17.40
  -3   7   8  146.69   12.60
  -3  -7   8  131.69   17.70
  -3  -7   8  137.19   18.00
   3   7  -7  200.18   19.70
  -3   7   7  185.58   13.20
  -3  -7   7  197.98   20.40
  -3  -7   7  206.68   20.90
   3   7  -6   79.69   14.90
  -3   7   6   86.39    8.60
  -3  -7   6   84.89   14.00
  -3  -7   6   83.19   13.90
   3   7  -5  322.47   23.50
  -3   7   5  316.87   16.90
  -3   7   5  274.57   14.30
   3   7  -5  274.77   21.30
  -3  -7   5  254.47   21.40
  -3  -7   5  275.77   21.50
   3   7  -4   73.89   13.00
   3   7  -4   73.79   14.10
  -3  -7   4   92.19   13.40
  -3  -7   4   68.59   11.20
   3   7  -3  182.88   16.50
   3   7  -3  205.48   16.70
  -3   7   3  220.08   16.20
  -3   7   3  197.98   11.30
   3  -7  -3  186.78   11.20
  -3  -7   3  205.68   18.10
  -3   7   2  739.43   26.70
   3   7  -2  722.43   32.00
  -3   7   2  682.13   31.20
   3   7  -2  652.53   28.90
   3  -7  -2  735.43   26.50
  -3  -7   2  748.63   34.50
  -3   7   1    5.90    5.30
   3   7  -1    2.40    4.50
   3   7  -1   15.90    6.70
  -3   7   1    5.00    5.20
  -3   7   1   19.10    5.50
  -3  -7   1   11.10    6.30
   3  -7  -1    9.40    5.50
   3   7   0  237.78   12.60
   3   7   0  219.68   16.10
  -3   7   0  213.48   15.80
  -3   7   0  210.18   17.00
   3  -7   0  212.58   15.80
  -3  -7   0  219.88   17.70
  -3   7  -1   76.29   11.40
   3   7   1   70.69   10.20
  -3   7  -1   83.69   14.40
   3   7   1   89.89    7.40
  -3   7  -1   64.69   10.60
  -3  -7  -1   77.49   11.30
   3  -7   1   64.09   10.70
  -3  -7  -1   65.29   10.70
  -3   7  -2  363.06   23.90
  -3   7  -2  425.96   21.40
   3   7   2  375.76   21.00
   3   7   2  379.66   18.40
  -3  -7  -2  372.66   19.80
   3  -7   2  386.66   23.40
   3   7   3  420.36   22.30
  -3   7  -3  479.85   25.20
   3   7   3  451.25   21.30
  -3   7  -3  463.65   29.20
  -3  -7  -3  467.85   21.90
   3  -7   3  453.35   26.80
   3   7   4  100.99   10.40
   3  -7   4  126.49   15.40
   3  -7   4  116.79   15.40
  -3  -7  -4  107.29   12.10
   3   7   5  249.08   15.00
  -3   7  -5  314.97   21.80
   3   7   5  251.27   20.60
  -3  -7  -5  300.37   16.00
   3  -7   5  277.77   22.40
   3  -7   5  240.68   21.80
   3   7   6  285.87   22.00
   3  -7   6  288.07   23.50
   3  -7   6  255.37   23.20
   3   7   8  250.77   18.80
   3  -7   8  177.28   20.70
   3  -7   8  225.58   26.30
   3   7   9  354.96   25.60
   3  -7   9  344.57   26.90
   3  -7   9  369.26   30.30
   3   7  10  192.48   15.90
   3  -7  10  157.38   14.10
  -3   8  10  153.78   14.70
  -3  -8  10  151.28   21.10
  -3  -8  10  163.08   20.30
  -3  -8   9  220.48   24.20
  -3  -8   9  238.88   25.80
  -3   8   8   26.70    7.80
   3   8  -8   20.20   10.00
  -3  -8   8   11.80    8.00
  -3  -8   8   26.50   11.80
  -3   8   7   66.49    9.80
   3   8  -7   73.99   24.10
  -3  -8   7   70.09   15.70
  -3  -8   7   77.89   16.00
   3   8  -6   14.00    8.30
  -3   8   6   12.30    5.30
  -3  -8   6    1.60    7.30
  -3  -8   6    8.60    6.80
   3   8  -5    4.80    7.50
  -3   8   5    7.60    4.90
  -3   8   5    5.70    6.00
  -3  -8   5    7.10    7.10
  -3  -8   5    3.70    6.20
  -3   8   4   24.50    7.50
   3   8  -4   11.70    7.20
  -3  -8   4    9.60    6.80
  -3   8   3  105.59    9.70
   3   8  -3  122.99   14.90
  -3   8   3  110.29   14.90
   3  -8  -3  126.89    9.30
  -3  -8   3  137.69   16.20
   3   8  -2  296.47   20.90
  -3   8   2  293.17   18.00
  -3   8   2  311.07   22.80
   3  -8  -2  290.87   15.90
  -3  -8   2  297.87   22.60
   3   8  -1  439.96   25.20
   3   8  -1  487.55   22.50
  -3   8   1  500.85   27.90
  -3   8   1  510.95   22.00
  -3  -8   1  461.05   27.80
   3  -8  -1  456.25   22.60
  -3   8   0  423.06   24.20
   3   8   0  369.66   18.60
   3   8   0  361.96   22.30
  -3   8   0  390.56   22.50
  -3   8   0  437.86   21.10
   3  -8   0  397.66   22.60
  -3  -8   0  380.96   24.90
   3   8   1  170.98   13.30
   3   8   1  147.09   14.50
   3   8   1  154.48    9.00
  -3   8  -1  155.98   16.10
  -3   8  -1  157.68   14.70
  -3   8  -1  136.49   15.90
  -3  -8  -1  157.78   16.50
   3  -8   1  145.19   15.10
   3   8   2  176.58   13.10
   3   8   2  148.99   14.20
  -3   8  -2  137.29   16.90
  -3  -8  -2  162.88   16.20
   3  -8   2  131.59   15.70
   3   8   3  138.19   12.40
  -3   8  -3  161.58   16.20
  -3   8  -3  134.19   16.10
   3   8   3  128.19   11.30
   3  -8   3  148.49   16.70
  -3   8  -4  269.47   22.80
   3   8   4  210.88   22.70
  -3   8  -4  330.07   22.40
  -3  -8  -4  316.87   16.90
   3  -8   4  259.67   22.40
   3  -8   4  259.97   23.40
   3   8   5  334.87   18.10
   3  -8   5  334.17   26.20
   3  -8   5  322.27   26.10
  -3  -8  -5  386.46   18.90
   3   8   6  155.28   13.00
   3  -8   6  118.69   18.80
   3  -8   6  109.29   20.70
   3   8   7  160.08   17.60
   3  -8   7  130.39   19.50
   3  -8   7  135.89   18.20
  -3   8  -8  220.88   21.20
   3  -8   8  186.08   20.60
   3  -8   8  178.18   21.10
  -3   8  -9   17.00   11.10
   3  -8   9   11.30    7.30
   3  -8   9   23.30    7.60
   3   9  -9  256.47   23.70
  -3   9   9  198.08   14.90
  -3  -9   9  228.78   24.50
  -3  -9   9  172.68   22.30
  -3   9   8  165.58   12.00
  -3  -9   8  112.69   18.80
  -3  -9   8  148.69   18.60
  -3   9   7  109.59   11.10
   3   9  -7   89.39   17.10
  -3  -9   7  105.29   17.50
  -3  -9   7   96.29   17.70
  -3   9   6  290.17   20.50
   3   9  -6  254.57   24.40
  -3   9   6  256.17   15.00
  -3  -9   6  248.68   24.80
  -3   9   5  555.84   28.90
   3   9  -5  540.55   32.70
  -3  -9   5  515.55   34.00
   3   9  -4   92.49   17.10
  -3  -9   4  104.59   16.70
  -3   9   3  132.09   15.80
   3   9  -3   92.79   12.20
  -3   9   2  354.26   27.00
  -3   9   2  495.65   28.00
  -3   9   2  458.55   21.40
   3   9  -2  411.36   26.40
  -3  -9   2  415.26   28.80
   3  -9  -2  424.76   20.20
  -3   9   1  161.58   14.60
   3   9  -1  135.79   14.90
  -3   9   1  153.98   15.20
   3  -9  -1  133.09   14.00
  -3  -9   1  150.48   17.70
   3   9   0  170.08   16.50
   3   9   0  181.38   16.60
  -3   9   0  189.88   17.30
   3  -9   0  181.88   15.80
  -3  -9   0  177.48   18.50
  -3   9  -1   68.19   12.50
   3   9   1   89.09   15.40
  -3   9  -1   97.99   16.30
   3   9   1   78.09   12.90
   3  -9   1   70.99   12.00
  -3  -9  -1   68.49   13.30
  -3   9  -2   73.29   13.40
   3   9   2   68.29   11.10
  -3   9  -2   98.19   16.00
   3   9   2   69.59   12.20
   3  -9   2   69.89   12.80
  -3  -9  -2   81.39   16.20
   3   9   3  182.28   16.00
   3   9   3  153.18   14.10
  -3   9  -3  136.99   19.20
   3  -9   3  157.48   20.30
  -3  -9  -3  164.38   16.60
   3  -9   3  153.28   17.30
  -3   9  -4  210.58   21.70
   3   9   4  155.98   13.50
  -3  -9  -4  193.18   18.20
   3  -9   4  187.18   20.10
   3  -9   4  169.98   21.20
   3   9   5   96.79   14.90
  -3   9  -5  132.29   22.10
   3  -9   5  106.49   17.00
   3  -9   5  141.59   17.30
  -3   9  -6   86.09   17.30
   3   9   6   82.79   13.10
   3  -9   6   80.89   16.30
   3  -9   6   61.39   13.60
   3   9   7   87.69   15.70
  -3   9  -7   67.59   17.20
   3  -9   7   85.19   19.70
   3  -9   7   95.89   16.40
   3   9   8  145.99   16.10
  -3   9  -8  107.29   20.20
   3  -9   8   85.99   15.00
   3  -9   8  127.79   17.40
   3  10  -7  274.07   25.30
  -3 -10   7  211.08   25.90
   3  10  -6   87.69   18.20
  -3 -10   6  114.59   18.50
  -3  10   5  162.98   11.10
  -3  10   5  200.58   18.90
   3  10  -5  128.69   15.30
   3  10  -4  187.48   20.70
  -3 -10   4  194.18   20.80
   3  10  -3   26.80   10.10
  -3  10   3   42.30    7.90
  -3 -10   3   23.00   11.60
  -3  10   2  243.58   16.90
   3  10  -2  209.98   19.00
  -3  10   2  214.78   15.60
   3 -10  -2  193.18   13.50
  -3 -10   2  212.38   22.60
   3  10  -1  236.68   17.70
  -3  10   1  169.78   15.90
  -3  10   1  188.18   17.30
   3 -10  -1  217.18   14.40
  -3 -10   1  153.68   29.30
  -3  10  -1   89.79   12.20
   3  10   1  118.49   18.20
   3  10   2   37.80    8.00
   3  10   2   45.20   11.90
  -3 -10  -2   23.40   10.40
   3 -10   2   41.80   12.50
   3 -10   2   45.70   11.20
   3  10   3  212.18   16.40
   3  10   3  267.47   20.90
  -3 -10  -3  189.58   21.20
   3 -10   3  195.08   23.80
   3 -10   3  209.18   21.00
   3  10   4   71.19   10.60
   3 -10   4   91.19   18.50
   3 -10   4   58.49   14.70
   3  10   5   31.60   10.90
  -3  10  -5   32.30   12.90
   3  10   5   34.60    7.60
  -3 -10  -5   31.90    9.60
   3 -10   5   24.20    8.60
  -3  10  -6  106.69   17.20
  -3 -10  -6   83.79   11.00
  -3  11   4  178.98   17.20
   3  11  -4  158.18   17.50
  -3 -11   4  110.09   19.80
  -3  11   3  139.49   14.10
  -3 -11   3  148.69   19.20
  -3  11   2   93.89   11.90
   3  11  -2   92.99   12.00
  -3 -11   2   94.89   14.60
   3  11  -1  112.69   16.70
  -3  11   1  155.18   13.90
  -3 -11   1  142.89   19.30
   3  11   0   97.49   15.20
  -3  11   0  103.09   13.40
  -3 -11   0   57.89   15.90
   3  11   1   87.29   12.00
  -3 -11  -1   64.99   16.00
   3 -11   1   76.39   13.70
   3  11   2  452.15   24.30
   3 -11   2  464.95   25.60
  -3 -11  -2  368.06   26.50
   3 -11   2  338.57   30.70
   3  11   3  158.88   13.70
  -3  11  -3  172.68   16.50
   3 -11   3  164.98   24.10
   4   0 -15  271.17   15.60
   4   0 -14  134.49   13.30
   4   0 -13   11.30    6.70
   4   0 -12  958.60   38.90
   4   0 -12 1028.00   53.39
   4   0 -12 1038.00   40.30
   4   0 -11   -4.70    7.30
   4   0 -11   -0.80    5.30
   4   0 -11   11.60    5.90
   4   0 -10 1167.88   45.70
   4   0 -10 1135.59   40.80
   4   0 -10 1092.59   44.30
   4   0 -10 1175.98   43.90
   4   0 -10 1162.58   41.00
   4   0  -9   -0.70    4.00
   4   0  -9    7.70    4.80
   4   0  -9   -0.50    4.20
   4   0  -9    0.40    4.60
   4   0  -9    4.10    4.70
   4   0  -8  458.75   22.00
   4   0  -8  485.95   21.30
   4   0  -8  465.05   23.40
   4   0  -8  471.05   24.30
   4   0  -7   -4.50    3.00
   4   0  -7   -0.10    3.40
   4   0  -7    2.20    3.80
   4   0  -7    4.30    3.80
   4   0  -7   -2.00    2.90
   4   0  -6  362.56   21.70
   4   0  -6  345.17   17.20
  -4   0   6  368.16   18.90
   4   0  -6  378.06   16.40
   4   0  -6  351.16   17.70
   4   0  -6  359.16   18.40
   4   0  -5   -0.70    2.30
  -4   0   5    1.60    2.60
   4   0  -5    0.20    2.50
  -4   0   5    4.90    2.90
   4   0  -5   -1.00    2.50
   4   0  -5    4.40    3.90
   4   0  -5    6.60    3.50
   4   0  -4 1565.14   44.00
   4   0  -4 1577.74   41.90
  -4   0   4 1523.85   41.30
  -4   0   4 1547.65   43.70
   4   0  -4 1532.35   44.60
   4   0  -3    4.50    2.80
   4   0  -3   -0.30    1.90
  -4   0   3   -0.70    2.80
   4   0  -3   -0.20    2.20
  -4   0   3    4.80    2.50
  -4   0   2 1420.56   39.70
   4   0  -2 1450.25   40.10
   4   0  -2 1473.25   38.60
  -4   0   2 1420.26   38.10
   4   0  -2 1424.16   39.30
   4   0  -1   -0.70    2.20
   4   0  -1    0.50    2.40
  -4   0   1    0.70    2.30
  -4   0   1    0.90    2.20
   4   0   0  563.24   19.70
  -4   0   0  568.34   19.40
  -4   0   0  565.74   19.10
   4   0   0  575.54   19.40
  -4   0  -1   -0.30    2.40
   4   0   1    3.20    2.80
   4   0   1   -1.30    2.00
   4   0   1    3.40    2.80
  -4   0  -1   -1.10    2.20
  -4   0  -2 2229.08   60.39
  -4   0  -2 2335.77   58.09
   4   0   2 2332.27   58.19
   4   0   2 2288.97   62.49
   4   0   3   -0.30    3.00
   4   0   3    0.50    2.50
  -4   0  -3    1.20    2.70
   4   0   3    1.30    1.50
  -4   0  -3   -0.70    2.70
  -4   0  -3    2.80    3.00
   4   0   4 2645.64   71.69
  -4   0  -4 2631.04   66.39
  -4   0  -4 2585.54   73.79
   4   0   4 2643.94   74.79
  -4   0  -4 2650.83   71.09
   4   0   4 2604.04   62.09
  -4   0  -5   -1.70    2.90
   4   0   5   -1.10    3.40
  -4   0  -5   -1.00    3.60
   4   0   5    0.10    1.90
  -4   0  -5    0.10    3.10
   4   0   5    0.60    4.30
   4   0   6 1162.78   44.90
   4   0   6 1119.39   31.60
  -4   0  -6 1103.09   43.50
  -4   0  -6 1120.99   34.70
  -4   0  -6 1128.69   40.00
   4   0   6 1220.58   54.89
  -4   0  -7    5.80    5.90
  -4   0  -7    5.80    4.50
   4   0   7    4.70    4.90
  -4   0  -7    5.50    5.20
   4   0   7    3.00    5.50
   4   0   8 1734.73   64.39
   4   0   8 1739.63   47.90
  -4   0  -8 1855.01   65.09
  -4   0  -8 1675.13   57.39
   4   0   8 1794.02   60.39
  -4   0  -8 1797.42   50.29
   4   0   9   -1.20    5.40
  -4   0  -9   -4.60    5.20
   4   0   9    2.00    6.20
   4   0  10   89.79   13.90
  -4   0 -10   89.69   15.30
   4   0  10   85.39   15.50
   4   0  11   -7.20    5.30
   4   0  11   -2.50    6.40
   4   0  12  126.59   18.10
   4   0  12  146.59   20.90
   4  -1 -15  113.99   10.10
   4   1 -14  134.89   11.60
   4   1 -14  105.59   13.40
   4  -1 -14   90.79   13.90
   4   1 -13   16.60    9.30
   4  -1 -13   31.00    9.40
   4  -1 -13   37.40    9.50
   4   1 -12  547.35   30.00
   4   1 -12  537.55   29.70
   4  -1 -12  618.84   32.70
   4  -1 -12  572.24   27.30
   4  -1 -12  553.54   30.00
   4  -1 -12  502.75   31.90
   4  -1 -12  586.94   26.60
   4   1 -11  882.81   39.90
   4   1 -11  903.81   38.30
   4   1 -11  898.51   43.10
   4   1 -11  877.21   40.60
   4   1 -11  900.31   37.60
   4  -1 -11  927.01   38.80
   4  -1 -11  899.51   38.90
   4  -1 -11  939.91   40.30
   4  -1 -11  830.42   44.90
  -4  -1  11  874.71   39.90
   4  -1 -11  878.51   34.70
   4   1 -10    4.00    5.50
   4   1 -10    7.10   10.50
   4   1 -10   -4.60    6.70
   4   1 -10    5.10    5.90
   4  -1 -10    4.20    6.30
   4  -1 -10   -2.60    3.80
   4  -1 -10   10.90    6.70
   4  -1 -10    5.50    5.20
   4  -1 -10    5.90    5.50
  -4  -1  10    3.80    5.00
   4   1  -9   46.90    9.90
   4   1  -9   39.00   11.10
   4   1  -9   37.20    8.30
   4   1  -9   37.90    9.10
   4   1  -9   33.10   10.00
   4  -1  -9   48.20    9.10
  -4  -1   9   34.20    8.20
   4  -1  -9   48.60    9.80
   4  -1  -9   44.90    8.10
   4  -1  -9   44.00    8.80
   4  -1  -9   42.30    9.00
   4   1  -8  169.08   15.40
   4   1  -8  180.38   13.80
   4   1  -8  163.98   14.40
   4   1  -8  178.18   15.80
   4   1  -8  187.88   17.60
   4  -1  -8  177.38   14.50
   4  -1  -8  179.28   13.00
  -4  -1   8  197.08   15.50
   4  -1  -8  179.68   13.90
   4  -1  -8  175.68   11.50
   4  -1  -8  197.18   14.40
   4   1  -7 1065.79   36.10
   4   1  -7 1095.09   39.20
   4   1  -7 1052.09   37.00
   4   1  -7 1032.20   37.70
   4   1  -7 1033.10   38.40
   4  -1  -7 1067.29   36.00
   4  -1  -7 1055.19   36.50
   4  -1  -7 1048.00   31.90
   4  -1  -7 1076.29   35.00
   4  -1  -7 1044.30   37.40
   4   1  -6 1364.06   43.50
   4   1  -6 1432.36   42.70
   4   1  -6 1426.26   47.50
   4   1  -6 1355.66   44.80
   4   1  -6 1386.56   44.50
   4  -1  -6 1418.36   38.20
   4  -1  -6 1396.76   41.60
   4  -1  -6 1323.87   43.50
  -4  -1   6 1388.76   44.90
   4  -1  -6 1402.86   43.00
   4   1  -5   60.39    7.30
   4   1  -5   55.79    7.90
   4   1  -5   52.29    7.10
  -4   1   5   62.59    6.80
   4   1  -5   54.69    8.70
   4   1  -5   60.19    7.10
  -4   1   5   57.29    5.20
  -4  -1   5   40.90    6.10
   4  -1  -5   59.99    6.10
   4  -1  -5   52.59    6.60
   4  -1  -5   50.19    6.90
  -4  -1   5   58.69    7.40
   4  -1  -5   60.99    5.40
   4  -1  -5   49.70    6.50
   4   1  -4 2090.39   55.29
   4   1  -4 1930.61   56.09
  -4   1   4 2063.69   54.99
   4   1  -4 2077.19   56.79
   4   1  -4 2013.00   57.19
  -4   1   4 2066.09   51.09
   4  -1  -4 2101.49   55.49
  -4  -1   4 2096.99   57.29
  -4  -1   4 2053.59   54.99
   4  -1  -4 2132.99   51.49
   4  -1  -4 2107.79   57.09
   4  -1  -4 2156.78   52.49
  -4   1   3 4102.59  100.99
   4   1  -3 4337.47  101.49
   4   1  -3 4133.39  102.29
  -4   1   3 4197.68   97.09
   4   1  -3 4106.09  101.59
  -4  -1   3 4141.79  100.59
   4  -1  -3 4371.26  101.89
   4  -1  -3 4203.18   97.39
  -4  -1   3 4146.69  101.99
  -4   1   2 8218.68  186.78
   4   1  -2 7950.80  185.68
   4   1  -2 8224.78  187.18
  -4   1   2 7999.80  183.38
   4   1  -2 8334.37  186.68
  -4  -1   2 8051.59  186.08
  -4  -1   2 7680.33  186.38
  -4  -1   2 8335.37  186.48
   4  -1  -2 8241.08  183.98
   4  -1  -2 8239.38  187.18
   4   1  -1 2665.33   65.59
  -4   1   1 2670.93   66.19
   4   1  -1 2628.84   63.49
   4   1  -1 2677.43   65.89
  -4   1   1 2606.44   64.09
  -4  -1   1 2632.94   65.39
  -4  -1   1 2512.45   63.59
  -4  -1   1 2585.24   65.39
   4  -1  -1 2653.13   64.49
   4  -1  -1 2504.35   65.79
   4   1   0  718.63   22.50
   4   1   0  706.53   20.20
  -4   1   0  736.23   23.40
  -4   1   0  730.43   23.80
   4   1   0  729.73   23.60
   4  -1   0  701.83   23.80
  -4  -1   0  704.73   22.30
  -4  -1   0  743.03   23.70
  -4  -1   0  727.03   20.40
   4  -1   0  718.93   22.30
   4   1   1  437.46   15.50
   4   1   1  440.96   17.30
   4   1   1  451.95   12.30
  -4   1  -1  446.26   17.50
  -4   1  -1  432.36   17.10
  -4   1  -1  439.76   17.30
  -4  -1  -1  442.86   15.50
   4  -1   1  434.76   17.30
  -4  -1  -1  422.16   17.00
  -4   1  -2  522.55   21.00
   4   1   2  532.75   17.30
   4   1   2  528.85   20.30
   4   1   2  523.15   22.00
  -4   1  -2  505.95   19.50
  -4  -1  -2  545.65   20.30
   4  -1   2  522.85   21.20
   4  -1   2  521.85   19.90
  -4  -1  -2  507.25   16.90
   4   1   3 1817.72   46.00
   4   1   3 1802.02   54.29
  -4   1  -3 1823.82   50.09
  -4   1  -3 1784.42   53.09
  -4  -1  -3 1774.52   50.89
   4  -1   3 1838.42   53.99
   4  -1   3 1845.12   53.59
  -4  -1  -3 1859.71   46.10
   4  -1   3 1830.12   50.29
  -4   1  -4   42.90    7.70
   4   1   4   43.80    4.80
   4   1   4   36.00    7.40
   4   1   4   45.70    6.50
  -4   1  -4   40.10    6.70
   4  -1   4   35.90    7.20
   4  -1   4   42.20    5.10
   4  -1   4   41.20    7.50
   4   1   5  316.77   20.20
  -4   1  -5  318.67   16.10
  -4   1  -5  338.07   20.30
  -4   1  -5  317.97   16.10
   4   1   5  317.67   17.00
   4  -1   5  331.47   20.50
   4  -1   5  328.37   20.20
   4  -1   5  340.57   14.40
  -4  -1  -5  334.27   17.50
   4   1   6  124.49   13.90
   4   1   6  137.79   12.20
  -4   1  -6  127.09   14.00
  -4  -1  -6  132.29   11.90
   4  -1   6  135.59   14.40
   4  -1   6  123.69    9.30
  -4   1  -7 1740.63   52.39
   4   1   7 1799.22   56.99
  -4   1  -7 1741.53   61.29
   4   1   7 1821.52   62.99
   4  -1   7 1794.02   60.09
   4  -1   7 1797.92   50.09
  -4  -1  -7 1811.42   62.19
  -4  -1  -7 1702.63   55.09
   4   1   8  689.03   36.50
  -4   1  -8  681.63   27.70
   4   1   8  738.73   32.30
   4  -1   8  710.23   34.80
  -4  -1  -8  688.03   36.10
   4  -1   8  683.63   25.80
  -4  -1  -8  689.73   30.60
   4  -1   8  667.93   36.10
  -4   1  -9  106.89   10.10
   4   1   9   70.19   13.80
   4   1   9   90.69   12.80
  -4  -1  -9   83.99   11.10
   4  -1   9   77.49    9.40
   4  -1   9   79.29   14.70
   4  -1   9   75.29   13.20
   4   1  10   24.00    9.20
   4   1  10   28.00   11.00
   4  -1  10   30.40   11.90
   4  -1  10   37.40    9.40
  -4  -1 -10   44.30    9.30
   4  -1  10   32.20    6.70
   4   1  11    3.70    7.00
   4   1  11    2.70    7.70
   4  -1  11    2.80    7.00
   4  -1  11    3.00    7.20
   4  -1  11   18.50    6.20
   4   1  12  317.97   22.90
   4   1  12  256.27   27.40
  -4   1 -12  369.66   22.70
   4  -1  12  298.37   25.80
   4  -1  12  304.97   29.60
   4   1  13  197.58   19.10
   4  -1  13  188.38   21.60
   4  -1  13  158.58   24.20
   4   2 -14  188.18   15.40
   4  -2 -14  143.09   11.50
   4   2 -13   59.79   12.10
   4  -2 -13   36.60   11.30
   4   2 -12   44.30   11.10
   4   2 -12   43.10   11.90
   4  -2 -12   50.79    9.60
   4  -2 -12   46.00   11.60
   4  -2 -12   70.89   13.60
  -4  -2  12   36.80    9.90
  -4   2  11   51.59   11.30
   4   2 -11   40.10   10.80
   4   2 -11   45.70   11.60
   4  -2 -11   56.79    9.20
  -4  -2  11   49.00   11.90
   4  -2 -11   44.10    8.60
   4   2 -10   20.50    7.40
   4   2 -10   16.40    9.10
  -4   2  10    4.20    5.20
   4   2 -10    8.40    6.70
   4  -2 -10    9.60    4.40
   4  -2 -10   18.50    6.70
   4  -2 -10    7.40    5.80
   4  -2 -10    0.80    6.10
  -4  -2  10   14.90    6.30
   4  -2 -10   -1.10    6.20
  -4   2   9  172.38   14.70
   4   2  -9  191.28   16.50
   4   2  -9  151.98   17.60
   4   2  -9  180.18   15.90
   4   2  -9  147.49   16.40
   4  -2  -9  179.28   13.10
   4  -2  -9  155.78   10.50
   4  -2  -9  177.18   15.20
   4  -2  -9  154.88   14.10
  -4  -2   9  168.48   16.60
  -4  -2   9  174.08   16.00
   4  -2  -9  161.38   14.90
   4   2  -8  104.09   13.10
   4   2  -8   93.59   11.60
   4   2  -8   87.09   12.50
   4   2  -8   92.89   12.50
  -4   2   8   93.19    9.90
  -4  -2   8   96.69   11.70
   4  -2  -8   86.79   10.70
   4  -2  -8   88.19   10.30
   4  -2  -8   90.79    9.50
  -4  -2   8   92.19   12.20
   4  -2  -8  107.69   11.80
   4  -2  -8  106.59    8.10
   4   2  -7 1760.02   55.69
   4   2  -7 1717.83   57.09
  -4   2   7 1877.51   51.99
   4   2  -7 1732.83   56.79
   4   2  -7 1859.81   58.89
   4  -2  -7 1724.93   50.49
   4  -2  -7 1735.23   51.69
   4  -2  -7 1824.92   45.30
   4  -2  -7 1726.23   54.49
   4  -2  -7 1795.42   50.69
  -4  -2   7 1782.12   56.79
   4   2  -6  701.03   29.40
   4   2  -6  653.93   27.50
   4   2  -6  639.24   28.10
  -4   2   6  669.73   24.50
   4  -2  -6  684.63   19.70
   4  -2  -6  677.53   25.00
  -4  -2   6  709.63   29.10
   4  -2  -6  688.53   25.20
   4  -2  -6  684.83   23.40
   4  -2  -6  683.53   23.40
   4  -2  -6  689.83   27.60
   4   2  -5   98.89    9.70
  -4   2   5   94.19    8.10
   4   2  -5   71.39    8.50
   4  -2  -5   95.69    6.60
   4  -2  -5   94.39    8.40
  -4  -2   5  103.09   10.00
   4  -2  -5   81.59    5.10
   4   2  -4  190.28   12.20
   4   2  -4  195.88   12.40
  -4   2   4  203.08    7.90
  -4   2   4  204.18   11.40
   4   2  -4  204.08   13.10
  -4  -2   4  194.38   12.60
   4  -2  -4  209.38   11.90
   4  -2  -4  216.78    8.20
   4  -2  -4  209.78    8.10
  -4  -2   4  202.08   12.20
  -4   2   3 1425.16   40.70
  -4   2   3 1367.56   35.30
   4   2  -3 1377.66   41.10
   4   2  -3 1445.56   42.00
   4   2  -3 1422.96   42.40
   4  -2  -3 1472.65   41.20
  -4  -2   3 1408.66   41.40
   4  -2  -3 1447.86   35.90
  -4  -2   3 1415.46   41.90
   4   2  -2 5392.96  131.89
  -4   2   2 5712.33  131.99
   4   2  -2 5412.46  130.69
   4   2  -2 5559.94  132.19
  -4   2   2 5653.73  127.29
  -4  -2   2 5594.44  131.49
   4  -2  -2 5531.75  131.99
  -4  -2   2 5588.24  131.89
   4   2  -1 1591.64   42.00
   4   2  -1 1627.84   44.60
   4   2  -1 1639.24   43.80
  -4   2   1 1550.44   41.60
  -4   2   1 1579.74   44.50
   4  -2  -1 1555.04   44.70
   4  -2  -1 1522.75   38.40
  -4  -2   1 1568.44   42.30
  -4  -2   1 1612.44   44.10
   4   2   0 1203.58   35.50
  -4   2   0 1170.38   36.00
  -4   2   0 1203.98   32.60
   4   2   0 1212.98   32.00
   4   2   0 1234.68   34.10
  -4  -2   0 1184.88   32.10
  -4  -2   0 1141.99   34.90
   4  -2   0 1214.08   32.80
   4  -2   0 1203.18   36.40
   4   2   1  376.26   16.00
   4   2   1  381.16   14.00
  -4   2  -1  356.86   16.50
  -4   2  -1  368.36   15.40
   4  -2   1  372.56   17.10
  -4  -2  -1  377.36   15.80
  -4  -2  -1  352.46   11.70
   4  -2   1  362.66   15.40
   4   2   2 1580.64   45.00
  -4   2  -2 1560.94   46.30
  -4   2  -2 1584.84   46.10
   4   2   2 1575.04   40.70
  -4  -2  -2 1583.54   44.90
   4  -2   2 1630.44   47.00
   4  -2   2 1638.74   48.40
   4   2   3 1515.15   44.20
  -4   2  -3 1531.45   45.30
   4   2   3 1474.15   47.80
  -4   2  -3 1484.85   46.30
   4  -2   3 1522.75   47.80
  -4  -2  -3 1533.35   44.10
   4  -2   3 1485.65   47.00
  -4   2  -4 1244.58   40.00
  -4   2  -4 1189.88   41.80
   4   2   4 1257.57   43.60
   4   2   4 1230.28   37.30
   4  -2   4 1229.68   42.90
  -4  -2  -4 1283.77   40.10
   4  -2   4 1200.88   42.30
   4  -2   4 1234.78   37.50
   4   2   5  214.28   16.70
  -4   2  -5  211.08   14.20
   4   2   5  217.68   12.90
  -4   2  -5  210.08   15.90
   4  -2   5  217.88   12.90
  -4  -2  -5  192.28   13.20
   4  -2   5  215.88   16.50
   4  -2   5  197.58   16.20
   4   2   6  376.06   18.80
  -4   2  -6  369.46   19.40
  -4   2  -6  358.36   22.40
   4   2   6  382.76   23.80
   4  -2   6  361.46   23.40
   4  -2   6  382.16   18.20
  -4  -2  -6  366.86   19.10
   4  -2   6  358.16   22.80
   4   2   7 1247.38   42.20
  -4   2  -7 1235.88   42.70
   4   2   7 1273.97   49.70
  -4   2  -7 1280.67   53.19
   4  -2   7 1241.68   40.60
  -4  -2  -7 1184.28   41.90
   4  -2   7 1231.78   49.90
   4  -2   7 1310.87   49.40
   4   2   8    5.80    6.80
  -4   2  -8   19.20    6.60
   4   2   8   13.80    6.20
   4  -2   8    5.20    6.10
   4  -2   8   19.70    6.50
   4  -2   8   14.60    8.00
  -4  -2  -8   18.00    6.60
  -4   2  -9   51.49    9.80
   4   2   9   35.60    9.00
   4   2   9   23.50    9.30
   4  -2   9   29.20    7.30
   4  -2   9   30.20   10.40
   4  -2   9   25.90    9.30
   4   2  10    8.10    7.50
   4  -2  10    1.30    7.10
   4  -2  10    2.90    4.60
  -4  -2 -10    4.00    7.00
   4  -2  10   -4.00    5.90
   4   2  11  265.97   25.10
   4   2  11  267.17   20.40
  -4   2 -11  263.57   22.90
   4  -2  11  272.47   18.70
  -4  -2 -11  275.97   21.40
   4  -2  11  287.57   27.20
   4  -2  11  226.78   25.00
   4   2  12   31.50   13.90
  -4   2 -12   48.30   12.50
   4  -2  12   66.69   14.60
   4  -2  12   50.59   10.40
   4   3 -14  177.08   17.80
  -4  -3  14  176.88   15.60
   4   3 -13  242.18   24.10
   4   3 -13  276.97   30.40
  -4  -3  13  237.28   23.00
   4   3 -12   13.40    8.60
  -4   3  12   12.30    7.30
  -4  -3  12    2.80    5.60
   4   3 -11  383.06   25.90
  -4   3  11  407.66   24.80
  -4  -3  11  355.46   27.60
   4  -3 -11  348.47   17.80
  -4  -3  11  379.46   26.00
   4  -3 -11  359.76   24.50
   4  -3 -11  354.36   23.70
   4   3 -10   46.00   14.10
   4   3 -10   24.70    8.60
   4   3 -10   35.10   10.80
  -4   3  10   39.70    9.00
   4  -3 -10   49.00    8.50
   4  -3 -10   63.19   10.60
  -4  -3  10   35.50   11.70
   4  -3 -10   32.80    7.50
  -4  -3  10   36.10    9.50
   4   3  -9  246.48   19.50
  -4   3   9  241.58   16.30
   4   3  -9  195.78   19.60
   4   3  -9  288.57   21.80
   4   3  -9  267.87   21.70
   4  -3  -9  223.38   16.30
  -4  -3   9  267.57   20.00
  -4  -3   9  229.98   20.50
   4  -3  -9  223.08   17.70
   4  -3  -9  232.58   15.80
   4  -3  -9  239.68   14.30
  -4   3   8  542.15   23.20
   4   3  -8  513.55   26.80
   4   3  -8  495.75   28.10
   4   3  -8  521.85   26.80
   4   3  -8  495.85   27.80
  -4  -3   8  520.85   27.90
  -4  -3   8  518.65   29.00
   4  -3  -8  518.35   22.70
   4  -3  -8  531.15   25.00
   4  -3  -8  521.65   21.40
   4  -3  -8  516.35   25.70
  -4   3   7   68.29    7.70
   4   3  -7   65.79   10.60
   4   3  -7   59.59   10.50
  -4   3   7   52.69    9.20
   4   3  -7   61.29    9.90
   4   3  -7   70.39   10.90
   4  -3  -7   69.49    7.70
  -4  -3   7   74.39   10.90
   4  -3  -7   72.19    8.50
  -4  -3   7   59.99   10.00
   4  -3  -7   65.09    7.90
   4   3  -6   90.99   10.40
   4   3  -6   90.09   10.70
  -4   3   6   86.19    8.60
  -4   3   6   89.29    7.10
   4   3  -6   82.29   11.00
   4   3  -6   81.19   10.80
   4  -3  -6   90.99    7.20
   4  -3  -6   86.59    8.20
  -4  -3   6   95.59   11.00
   4  -3  -6   93.99    8.90
   4   3  -5   91.09    9.80
  -4   3   5  106.99    9.00
   4   3  -5   88.89   10.10
   4   3  -5  110.89   11.00
  -4   3   5   96.69    6.00
   4  -3  -5   87.89    8.80
  -4  -3   5   96.69   10.40
   4   3  -4  182.58   13.10
   4   3  -4  187.88   13.10
   4   3  -4  204.88   13.70
  -4   3   4  207.98   12.20
   4  -3  -4  205.08   12.40
  -4  -3   4  194.08   13.10
  -4  -3   4  202.48   13.90
  -4   3   3 3850.91   88.69
   4   3  -3 3913.71   97.99
   4   3  -3 3871.11   97.49
   4   3  -3 3839.42   97.89
  -4   3   3 3863.61   95.99
  -4  -3   3 3592.54  108.69
  -4  -3   3 3993.70   98.59
   4  -3  -3 3960.70   96.79
   4   3  -2  469.25   19.70
   4   3  -2  467.15   19.40
   4   3  -2  487.45   20.60
  -4   3   2  503.55   20.20
  -4   3   2  501.45   16.50
   4  -3  -2  507.35   20.60
  -4  -3   2  499.55   20.60
  -4  -3   2  483.65   20.10
   4   3  -1 3453.35   87.29
   4   3  -1 3476.85   85.39
  -4   3   1 3451.45   79.59
  -4   3   1 3481.25   87.89
  -4  -3   1 3376.36   85.49
   4  -3  -1 3486.35   88.29
  -4  -3   1 3440.06   86.79
  -4   3   0 1354.36   37.50
   4   3   0 1418.76   41.40
   4   3   0 1480.05   40.20
  -4   3   0 1374.46   42.40
   4  -3   0 1396.66   43.10
  -4  -3   0 1372.26   41.00
   4  -3   0 1383.86   37.90
  -4  -3   0 1445.26   39.00
   4   3   1 2477.55   62.99
  -4   3  -1 2469.85   64.69
   4   3   1 2481.15   65.89
  -4  -3  -1 2547.84   65.99
   4  -3   1 2476.85   65.09
   4  -3   1 2572.54   68.99
  -4  -3  -1 2566.64   61.89
   4  -3   1 2510.75   68.99
  -4   3  -2  281.07   16.10
   4   3   2  291.67   11.70
  -4   3  -2  277.87   14.90
  -4  -3  -2  281.97   10.80
   4  -3   2  274.37   15.00
   4  -3   2  282.27   16.60
  -4  -3  -2  303.97   14.80
  -4   3  -3  770.62   31.50
   4   3   3  762.62   27.20
  -4   3  -3  722.73   28.90
   4  -3   3  774.82   29.90
  -4  -3  -3  756.72   26.90
   4  -3   3  755.02   30.80
  -4   3  -4 1100.69   40.30
   4   3   4 1146.19   33.70
  -4   3  -4 1103.59   39.20
   4   3   4 1201.98   48.90
   4   3   4 1147.19   36.80
  -4  -3  -4 1054.59   45.60
   4  -3   4 1144.99   42.10
   4  -3   4 1171.98   41.60
  -4   3  -5  258.07   17.30
   4   3   5  263.07   18.80
   4   3   5  260.07   13.50
  -4   3  -5  258.57   18.70
   4  -3   5  266.87   16.10
   4  -3   5  272.47   19.40
   4  -3   5  251.57   18.30
  -4  -3  -5  261.57   15.10
   4   3   6  428.76   19.20
  -4   3  -6  399.76   22.40
   4   3   6  435.36   25.60
  -4   3  -6  416.46   25.60
  -4  -3  -6  423.56   20.50
   4  -3   6  422.86   21.20
   4  -3   6  415.66   25.60
  -4   3  -7  996.20   43.10
   4   3   7  993.30   34.60
   4   3   7  998.80   43.40
  -4   3  -7  963.30   38.90
   4  -3   7  988.40   43.50
  -4  -3  -7  969.70   35.20
   4  -3   7 1009.20   37.00
   4  -3   7  991.20   44.30
  -4   3  -8  733.33   47.60
   4   3   8  727.83   37.50
   4   3   8  751.62   30.10
  -4   3  -8  741.43   33.30
   4  -3   8  769.02   38.80
  -4  -3  -8  719.63   29.90
   4  -3   8  724.03   38.90
   4  -3   8  755.22   31.70
   4   3   9   12.30    8.40
  -4   3  -9   15.70    9.20
   4   3   9   -3.90    4.40
  -4  -3  -9   -0.90    4.50
   4  -3   9    5.90    5.30
   4  -3   9    3.00    6.70
   4  -3   9   -6.00    5.90
   4   3  10   63.29   14.60
   4   3  10   63.59   11.30
   4  -3  10   52.29   10.00
   4  -3  10   47.40   12.60
  -4  -3 -10   56.19   10.20
   4  -3  10   89.89   16.50
   4   3  11   17.60    7.70
   4  -3  11   35.60   13.30
   4  -3  11   36.30    9.30
   4  -3  12   23.60    8.20
   4  -3  12   21.40    9.30
   4  -3  12   33.90    9.90
   4   4 -14  162.28   21.20
   4   4 -14  128.29   19.60
  -4  -4  14  185.98   18.30
   4   4 -13   26.60    8.70
  -4  -4  13   29.90    8.80
  -4   4  12   75.19   13.10
   4   4 -12   72.09   20.00
  -4  -4  12   61.49   16.30
  -4  -4  12   64.89   21.70
   4   4 -11  369.46   26.70
  -4   4  11  339.77   22.30
  -4  -4  11  318.17   25.40
   4  -4 -11  376.96   25.10
  -4  -4  11  372.16   29.00
   4  -4 -11  385.16   20.80
   4   4 -10  303.57   23.60
  -4   4  10  328.07   20.50
   4  -4 -10  380.36   18.60
   4  -4 -10  351.46   24.30
  -4  -4  10  311.27   25.90
  -4  -4  10  285.37   23.30
   4   4  -9  377.86   27.10
   4   4  -9  414.36   25.60
   4   4  -9  418.06   25.60
  -4   4   9  393.96   20.50
   4  -4  -9  384.16   18.30
   4  -4  -9  386.96   24.10
  -4  -4   9  403.36   26.00
  -4  -4   9  394.76   27.60
   4  -4  -9  425.36   20.30
  -4   4   8 1162.48   37.20
   4   4  -8 1146.09   45.40
  -4   4   8 1226.38   38.50
   4   4  -8 1151.18   48.30
   4   4  -8 1189.08   49.99
   4   4  -8 1154.28   47.40
   4  -4  -8 1147.59   36.90
  -4  -4   8 1195.78   47.20
  -4  -4   8 1180.28   48.80
   4  -4  -8 1171.08   36.70
  -4   4   7 1736.03   48.50
   4   4  -7 1784.72   58.69
  -4   4   7 1766.52   50.09
   4   4  -7 1753.32   60.89
   4   4  -7 1742.83   59.49
   4   4  -7 1750.72   58.59
  -4  -4   7 1746.43   60.99
   4  -4  -7 1773.32   50.59
  -4  -4   7 1795.12   59.99
   4  -4  -7 1698.73   48.50
  -4   4   6 1202.68   34.20
   4   4  -6 1216.88   45.10
   4   4  -6 1231.48   44.80
   4   4  -6 1195.48   44.30
  -4   4   6 1244.68   38.60
  -4  -4   6 1229.38   46.10
   4  -4  -6 1254.87   39.10
   4  -4  -6 1284.57   36.70
  -4  -4   6 1286.07   46.20
   4   4  -5  309.37   19.50
  -4   4   5  332.37   16.50
   4   4  -5  321.47   19.40
   4   4  -5  347.67   20.00
  -4  -4   5  340.17   20.30
   4  -4  -5  340.77   17.00
   4   4  -4  427.86   29.90
  -4   4   4  410.46   18.70
   4   4  -4  388.56   20.60
   4   4  -4  417.26   21.20
  -4  -4   4  430.86   23.50
   4  -4  -4  426.96   19.40
  -4  -4   4  392.56   20.80
   4   4  -3  912.01   33.50
   4   4  -3  955.70   35.50
   4   4  -3  955.70   34.30
  -4   4   3  977.40   33.60
  -4   4   3  967.50   25.90
  -4  -4   3  933.01   34.30
  -4  -4   3  949.51   34.10
   4  -4  -3  969.00   33.20
  -4   4   2 1007.40   38.50
   4   4  -2  997.80   34.30
   4   4  -2  963.20   32.40
  -4  -4   2  959.70   33.60
  -4  -4   2  898.61   32.70
   4  -4  -2  956.40   33.80
   4   4  -1 1406.36   42.00
  -4   4   1 1425.86   37.20
   4   4  -1 1478.25   44.60
  -4   4   1 1425.76   44.90
  -4  -4   1 1435.06   43.40
  -4  -4   1 1455.05   44.50
   4  -4  -1 1497.05   46.00
  -4   4   0  109.99   10.90
   4   4   0  121.09    8.80
   4   4   0  107.59    9.80
  -4   4   0  111.69    7.90
  -4  -4   0  121.19    9.30
  -4  -4   0  107.79   14.20
   4  -4   0  114.29   10.40
   4  -4   0  115.29   11.20
  -4   4  -1 1091.89   37.70
  -4   4  -1 1040.20   33.50
   4   4   1 1110.19   35.30
  -4  -4  -1 1091.99   32.80
  -4  -4  -1 1057.99   35.00
   4  -4   1 1070.09   38.40
   4  -4   1 1074.49   37.40
  -4   4  -2 1163.18   38.10
   4   4   2 1174.98   33.50
   4   4   2 1169.58   37.10
  -4   4  -2 1149.48   40.50
   4  -4   2 1153.78   38.60
   4  -4   2 1166.38   40.90
  -4  -4  -2 1145.29   33.60
  -4  -4  -2 1216.98   37.50
  -4   4  -3   17.10    5.40
   4   4   3   24.00    5.70
  -4   4  -3    9.80    4.80
  -4  -4  -3   21.80    7.70
  -4  -4  -3   18.90    4.20
   4  -4   3   16.80    5.70
   4  -4   3   18.60    6.60
   4   4   4  221.38   17.00
   4   4   4  226.48   13.80
   4   4   4  204.18   10.20
  -4   4  -4  205.88   16.30
  -4   4  -4  195.28   15.80
  -4  -4  -4  209.08   13.60
   4  -4   4  215.18   17.30
   4  -4   4  213.78   16.50
  -4   4  -5  864.41   35.80
  -4   4  -5  817.72   36.00
   4   4   5  850.71   37.10
   4   4   5  818.82   26.20
   4  -4   5  865.11   38.50
  -4  -4  -5  833.42   30.50
   4  -4   5  888.51   37.70
   4  -4   5  863.31   34.20
  -4   4  -6  475.75   26.10
   4   4   6  483.45   19.00
  -4   4  -6  488.95   27.30
   4   4   6  468.65   27.40
   4  -4   6  474.35   28.50
   4  -4   6  477.35   24.80
   4  -4   6  499.45   28.70
  -4  -4  -6  466.15   21.70
  -4   4  -7  159.88   17.30
  -4   4  -7  144.29   27.10
   4   4   7  156.98   16.70
   4   4   7  157.98   11.60
  -4  -4  -7  174.98   12.30
   4  -4   7  148.69   17.00
   4  -4   7  141.99   14.00
   4  -4   7  172.78   18.40
  -4   4  -8  130.89   15.30
   4   4   8  107.49   11.00
   4   4   8  131.99   15.80
   4  -4   8  115.49   16.60
   4  -4   8  128.19   16.70
  -4  -4  -8  139.89   12.00
   4  -4   8  112.49   13.30
   4   4   9   26.30    7.30
   4   4   9   38.70   12.70
   4  -4   9   35.00   11.40
   4  -4   9   19.40    6.80
   4  -4   9   24.00    9.90
   4   4  10   19.30   10.50
   4  -4  10   32.90   11.50
   4  -4  10   16.60   10.10
   4   4  11   40.50   12.40
   4   4  11   51.89   10.70
   4  -4  11   58.29   15.60
   4  -4  11   61.89   11.40
   4  -4  11   50.59   16.10
  -4  -4 -11   74.19   11.70
   4   4  12  215.38   25.20
   4   4  12  279.27   18.10
   4  -4  12  247.98   28.80
   4  -4  12  235.98   25.40
  -4  -4 -12  194.58   18.90
  -4   5  13   35.40   10.20
  -4   5  12   29.00    9.40
   4   5 -12   13.30   10.00
  -4  -5  12   25.50    8.40
  -4  -5  12   23.70   11.60
  -4   5  11  234.48   17.80
  -4  -5  11  230.18   24.30
  -4   5  10  142.09   17.40
   4   5 -10  139.29   17.50
  -4  -5  10  137.39   19.10
  -4  -5  10  135.39   17.10
   4  -5 -10  165.88   12.60
   4  -5 -10  175.18   17.50
   4   5  -9  281.87   22.70
  -4   5   9  312.27   17.80
   4  -5  -9  337.57   15.10
  -4  -5   9  291.97   23.30
  -4  -5   9  319.77   25.90
   4   5  -8  193.68   17.70
  -4   5   8  196.08   13.00
   4   5  -8  178.58   17.90
   4   5  -8  252.77   19.90
   4  -5  -8  215.28   11.80
   4  -5  -8  200.48   13.50
  -4  -5   8  169.78   17.50
  -4  -5   8  184.88   19.00
  -4   5   7 1261.37   36.30
   4   5  -7 1177.78   46.60
   4   5  -7 1180.08   55.49
   4   5  -7 1254.27   49.30
   4  -5  -7 1206.68   39.30
  -4  -5   7 1161.68   47.80
  -4  -5   7 1185.88   48.90
   4  -5  -7 1251.27   35.30
   4   5  -6  248.18   19.70
  -4   5   6  257.17   15.50
   4   5  -6  270.37   20.20
  -4  -5   6  256.17   19.80
   4  -5  -6  247.38   15.50
  -4  -5   6  279.37   20.20
   4  -5  -6  266.67   12.60
   4   5  -5  456.35   24.40
  -4   5   5  435.66   20.60
   4   5  -5  461.65   24.80
   4  -5  -5  426.66   21.00
  -4  -5   5  432.66   24.70
   4   5  -4  402.06   22.20
  -4   5   4  404.26   19.50
   4   5  -4  418.76   22.80
  -4  -5   4  390.26   22.40
   4  -5  -4  445.06   21.20
  -4   5   3 1217.68   40.20
   4   5  -3 1223.28   42.20
   4   5  -3 1188.68   40.80
   4  -5  -3 1212.68   40.80
  -4  -5   3 1205.28   42.80
  -4  -5   3 1169.78   41.90
  -4   5   2  401.06   20.60
   4   5  -2  406.76   26.30
   4   5  -2  444.36   29.90
  -4   5   2  377.36   13.40
  -4  -5   2  405.86   21.00
   4  -5  -2  424.36   18.70
   4  -5  -2  416.36   21.40
  -4  -5   2  399.86   20.70
   4   5  -1  793.82   28.10
  -4   5   1  786.92   31.20
   4   5  -1  773.32   30.30
  -4   5   1  813.22   24.60
  -4  -5   1  751.52   29.60
   4  -5  -1  787.72   29.00
  -4  -5   1  835.52   31.00
   4  -5  -1  779.12   34.40
  -4   5   0  224.08   12.20
   4   5   0  219.78   12.30
   4   5   0  243.68   15.20
  -4   5   0  239.58   16.20
  -4  -5   0  224.48   14.60
  -4  -5   0  228.58   14.50
   4   5   1 1093.49   36.20
  -4   5  -1  958.30   33.60
  -4   5  -1 1099.69   39.60
   4   5   1 1026.70   31.10
  -4  -5  -1 1051.19   35.70
  -4  -5  -1 1051.69   34.70
   4  -5   1 1101.39   38.50
   4   5   2  187.38   12.90
   4   5   2  174.08    9.40
  -4   5  -2  196.88   15.20
  -4   5  -2  170.38   13.30
   4  -5   2  187.28   15.20
  -4  -5  -2  183.78   12.20
  -4  -5  -2  182.58   12.80
   4   5   3  202.18   13.30
  -4   5  -3  186.28   15.90
  -4   5  -3  180.28   15.10
  -4  -5  -3  192.38   11.90
  -4  -5  -3  166.88   12.50
   4  -5   3  188.28   16.20
   4   5   4  109.19   10.60
  -4   5  -4  143.79   12.60
  -4   5  -4  112.89   13.80
  -4  -5  -4  100.89   10.90
   4  -5   4  104.69   14.10
   4   5   5  183.78   17.00
  -4   5  -5  215.48   16.60
   4   5   5  188.08   13.10
   4  -5   5  200.58   18.50
   4  -5   5  187.58   16.40
  -4  -5  -5  151.08   13.30
  -4   5  -6  517.15   28.80
   4   5   6  446.66   27.40
  -4   5  -6  442.26   26.90
  -4  -5  -6  472.15   21.60
   4  -5   6  447.36   29.20
   4  -5   6  456.85   26.00
  -4   5  -7  103.39   14.80
   4   5   7   60.79   13.10
  -4  -5  -7   84.79   10.20
   4  -5   7   88.69   12.60
   4  -5   7   78.99   14.50
   4   5   8  309.57   22.90
   4  -5   8  252.07   20.10
   4  -5   8  265.37   24.70
  -4  -5  -8  234.08   16.00
   4   5   9   26.60   10.00
   4  -5   9   46.60   13.90
   4  -5   9   36.50    9.70
   4   5  10   93.59   16.30
   4  -5  10  122.69   18.00
   4  -5  10  139.69   14.60
  -4  -5 -10  152.58   13.50
   4   5  11   97.09   17.20
  -4  -5 -11  145.79   14.70
   4  -5  11  149.99   14.90
   4  -5  11   87.99   17.90
  -4   6  12   45.20    8.80
   4   6 -12   41.50   11.50
  -4  -6  12   29.50    9.70
   4   6 -11  332.77   25.50
  -4   6  11  335.67   20.30
  -4  -6  11  291.37   27.80
  -4  -6  11  298.97   26.20
  -4   6  10   67.69   10.60
   4   6 -10   98.69   18.70
  -4  -6  10   84.09   16.30
  -4  -6  10   66.09   16.30
  -4   6   9  208.88   14.20
   4   6  -9  192.38   20.60
  -4  -6   9  210.58   22.00
  -4  -6   9  185.38   20.10
  -4   6   8  354.46   16.70
   4   6  -8  355.66   26.00
   4  -6  -8  337.97   18.00
  -4  -6   8  329.87   25.80
  -4  -6   8  328.77   25.40
  -4   6   7  886.71   28.00
   4   6  -7  851.01   40.50
  -4   6   7  919.71   32.80
   4   6  -7  899.41   40.50
   4  -6  -7  940.11   33.40
  -4  -6   7  922.91   42.70
  -4  -6   7  890.81   41.60
   4   6  -6  243.98   29.50
  -4   6   6  286.37   16.20
   4   6  -6  284.27   21.40
  -4  -6   6  293.77   21.70
  -4  -6   6  283.97   21.80
   4  -6  -6  295.17   17.80
   4   6  -5  888.91   37.20
   4   6  -5  910.41   38.90
  -4   6   5  877.61   32.70
  -4  -6   5  862.91   38.80
   4  -6  -5  898.21   34.30
  -4   6   4  727.43   29.90
   4   6  -4  760.82   32.70
   4   6  -4  787.82   34.20
  -4  -6   4  790.42   35.30
   4  -6  -4  738.13   25.20
   4   6  -3  817.12   32.90
   4   6  -3  844.02   34.70
  -4   6   3  825.72   25.60
  -4   6   3  785.82   32.20
  -4  -6   3  788.42   34.80
   4  -6  -3  825.82   28.10
  -4   6   2  661.83   29.30
   4   6  -2  695.63   30.40
   4   6  -2  702.43   28.30
  -4   6   2  690.03   22.00
  -4  -6   2  692.73   31.00
   4  -6  -2  706.33   26.30
  -4  -6   2  642.54   29.70
   4   6  -1  423.66   20.10
   4   6  -1  466.65   23.10
  -4   6   1  407.06   17.20
  -4  -6   1  455.45   22.90
   4  -6  -1  417.86   20.60
  -4  -6   1  442.06   23.30
  -4   6   0  162.08   14.90
   4   6   0  166.58   14.20
   4   6   0  162.88   11.50
  -4   6   0  158.68   11.40
   4  -6   0  174.58   13.90
  -4  -6   0  167.78   13.60
  -4  -6   0  158.08   16.70
   4   6   1   54.09    6.10
  -4   6  -1   69.29   13.80
   4   6   1   53.59   10.30
  -4  -6  -1   46.80    8.60
   4  -6   1   51.39    9.20
  -4  -6  -1   58.29    9.10
  -4   6  -2 1201.28   45.40
  -4   6  -2 1146.29   41.00
   4   6   2 1222.08   40.40
   4   6   2 1163.28   32.70
   4  -6   2 1196.28   44.90
  -4  -6  -2 1264.57   40.90
  -4  -6  -2 1201.48   40.60
   4   6   3   44.90    7.40
  -4   6  -3   40.30   11.80
   4   6   3   46.40    8.70
  -4   6  -3   63.39   11.20
   4  -6   3   48.00   10.90
  -4  -6  -3   48.90    8.40
  -4   6  -4  158.48   16.80
  -4   6  -4  211.48   17.80
   4   6   4  188.08   13.60
   4  -6   4  172.18   17.70
  -4  -6  -4  199.58   13.30
  -4  -6  -4  190.98   14.70
   4   6   5   78.09    9.90
  -4   6  -5   95.79   15.10
   4   6   5   90.99   13.50
  -4   6  -5   75.09   13.50
  -4  -6  -5  111.99   11.30
   4  -6   5  102.49   13.80
   4  -6   5  100.39   14.90
  -4   6  -6  158.98   16.70
   4   6   6  135.99   15.10
  -4  -6  -6  135.29   12.60
   4  -6   6  110.39   14.50
   4  -6   6  128.79   17.00
   4   6   7  491.05   30.20
  -4  -6  -7  556.44   23.70
   4  -6   7  490.85   29.20
   4  -6   7  493.45   32.90
   4   6   8  148.29   17.40
   4  -6   8  143.19   19.80
   4  -6   8  147.39   17.20
   4   6   9   83.99   17.80
   4  -6   9   74.69   17.10
   4  -6   9   75.69   13.60
   4  -6  10    6.80   10.10
  -4  -6 -10   31.10    8.20
  -4   7  12   33.10    8.80
   4   7 -12    4.50    9.90
  -4   7  11  103.49   12.30
   4   7 -11  126.39   18.80
  -4  -7  11  142.19   18.40
   4   7 -10  289.97   27.10
  -4   7  10  289.27   17.50
  -4  -7  10  341.07   28.00
  -4  -7  10  284.77   25.70
   4   7  -9  135.39   19.40
  -4   7   9  138.49   12.20
  -4  -7   9  144.99   19.30
  -4  -7   9  127.39   18.40
  -4   7   8   68.39    9.00
   4   7  -8   86.89   15.10
  -4  -7   8   97.99   15.40
  -4  -7   8   90.49   15.80
  -4  -7   7   15.90    7.60
   4   7  -6   12.00    7.90
   4   7  -6   26.30    9.60
  -4  -7   6    7.30    6.40
   4   7  -5  512.35   29.10
   4   7  -5  568.44   33.80
  -4   7   5  446.66   23.10
  -4  -7   5  509.75   30.10
   4   7  -4  416.26   25.20
   4   7  -4  425.96   24.30
  -4   7   4  410.06   22.60
   4  -7  -4  425.86   17.10
  -4  -7   4  414.86   26.40
  -4   7   3  397.36   17.10
  -4   7   3  383.86   23.00
   4   7  -3  411.96   24.40
  -4   7   3  403.06   15.50
   4   7  -3  413.06   22.40
   4  -7  -3  392.56   18.10
  -4  -7   3  397.46   25.00
   4   7  -2 1306.07   47.40
  -4   7   2 1300.17   46.40
   4   7  -2 1245.08   43.40
  -4   7   2 1313.27   40.30
  -4   7   2 1274.07   37.30
   4  -7  -2 1201.58   40.40
  -4  -7   2 1352.46   49.30
  -4   7   1  296.97   20.90
  -4   7   1  286.67   15.30
   4   7  -1  296.77   19.70
   4   7  -1  348.37   17.60
  -4   7   1  300.67   18.00
  -4  -7   1  302.37   20.90
   4  -7  -1  300.87   18.30
  -4  -7   1  327.37   20.20
  -4   7   0  453.85   30.60
  -4   7   0  491.95   22.90
   4   7   0  464.95   20.10
   4   7   0  478.05   24.80
  -4  -7   0  489.85   25.20
  -4  -7   0  494.75   26.00
   4  -7   0  499.65   26.30
  -4   7  -1   81.99   10.90
   4   7   1   84.99    8.50
   4   7   1  103.29   11.60
  -4   7  -1   88.89   12.90
   4  -7   1   99.29   13.30
  -4  -7  -1   97.69   12.30
  -4  -7  -1  104.19   12.10
   4   7   2  663.53   28.70
  -4   7  -2  630.84   29.10
  -4   7  -2  613.84   31.80
  -4  -7  -2  659.13   29.30
   4  -7   2  638.84   32.00
  -4  -7  -2  664.23   28.20
  -4   7  -3  721.13   32.20
   4   7   3  686.83   29.00
   4   7   3  716.93   26.30
  -4  -7  -3  773.52   32.90
   4  -7   3  672.03   34.80
  -4  -7  -3  669.03   28.40
   4   7   4  332.17   19.40
  -4   7  -4  348.47   23.00
   4  -7   4  343.17   25.00
   4  -7   4  309.37   23.80
  -4  -7  -4  340.17   19.70
  -4  -7  -4  336.97   19.40
   4   7   5  183.58   18.20
   4   7   5  161.38   21.20
  -4  -7  -5  214.88   15.10
   4  -7   5  193.68   19.20
  -4  -7  -5  191.48   14.70
   4  -7   5  202.08   20.40
   4   7   6   77.79   14.10
   4  -7   6  105.79   15.40
   4  -7   6  122.29   16.30
   4   7   7   41.60   11.70
   4  -7   7   39.60   12.90
   4  -7   7   45.00   10.60
   4   7   8  180.18   17.50
   4  -7   9  230.98   18.30
  -4  -7  -9  305.67   17.20
   4   7  10  295.07   23.00
   4  -7  10  246.88   28.20
   4  -7  10  274.17   22.90
  -4   8  10   61.39    9.10
  -4  -8  10   35.90   12.20
   4   8  -9   11.90    9.20
  -4  -8   9    1.30    8.90
   4   8  -7   51.99   19.00
  -4  -8   7   75.99   15.10
   4   8  -6   75.49   14.60
  -4   8   6  119.99   14.60
  -4  -8   6   88.79   15.50
  -4   8   5   12.30    6.10
   4   8  -5    4.50    6.60
  -4  -8   5    5.50    7.10
  -4   8   4  156.78   16.20
   4   8  -4  151.18   16.80
   4  -8  -4  154.28   10.10
  -4  -8   4  139.89   17.10
   4   8  -3  785.12   34.30
  -4   8   3  732.63   26.70
  -4   8   3  791.02   25.50
  -4   8   3  636.54   46.60
   4   8  -3  795.22   37.10
  -4  -8   3  742.23   37.60
   4  -8  -3  796.12   28.00
  -4   8   2  290.47   20.30
   4   8  -2  307.97   18.70
  -4   8   2  301.17   14.10
   4   8  -2  248.98   19.90
  -4   8   2  245.28   16.00
   4  -8  -2  254.77   16.60
  -4  -8   2  248.28   21.10
   4   8  -1   53.19   10.90
   4   8  -1   42.20   10.50
  -4   8   1   40.50    9.20
  -4  -8   1   31.30    9.90
   4  -8  -1   49.80   13.10
   4   8   0   83.69   12.60
   4   8   0  116.39   11.20
  -4   8   0  148.99   15.10
  -4   8   0  109.69   14.10
  -4  -8   0   89.19   13.40
   4  -8   0  123.59   13.90
   4   8   1  237.68   11.70
  -4   8  -1  214.38   18.60
   4   8   1  239.88   17.80
  -4  -8  -1  197.88   17.80
  -4  -8  -1  273.27   17.80
   4  -8   1  219.78   18.60
  -4   8  -2  189.88   15.90
   4   8   2  169.28   15.00
   4   8   2  192.18   12.10
  -4  -8  -2  123.39   14.60
  -4  -8  -2  132.09   15.30
   4  -8   2  133.19   16.20
  -4   8  -3  604.14   28.20
   4   8   3  512.75   25.00
   4   8   3  487.65   22.00
   4  -8   3  458.05   29.20
  -4  -8  -3  489.15   25.80
  -4  -8  -3  508.85   27.00
   4   8   4  166.08   14.20
   4  -8   4  159.78   19.20
   4  -8   4  198.78   19.20
  -4  -8  -4  233.88   15.20
  -4  -8  -4  192.68   15.80
   4   8   5  266.97   17.00
   4   8   5  289.67   22.70
   4  -8   5  318.77   26.00
   4  -8   5  272.27   26.10
  -4  -8  -5  297.57   20.20
   4  -8   6   11.30    8.90
   4   8   7   97.29   12.50
  -4  -8  -7  120.29   13.90
  -4  -8  -7  146.59   12.90
   4   9  -9  160.48   21.50
  -4  -9   9  139.19   19.90
   4   9  -8   17.40    9.10
  -4  -9   8   20.90    9.50
   4   9  -7   76.89   14.70
  -4  -9   7   57.29   13.70
   4   9  -5   84.19   21.70
  -4  -9   5   91.69   13.50
  -4   9   4   37.50   10.90
   4   9  -4   53.79   11.70
  -4  -9   4   30.00   10.00
  -4   9   3  192.88   25.90
   4   9  -3  215.88   17.40
   4  -9  -3  180.78   11.90
  -4  -9   3  155.88   18.60
   4   9  -2  102.69   14.20
  -4   9   2  119.99   13.70
  -4  -9   2  101.89   15.90
   4  -9  -2   97.19   12.10
   4   9  -1  303.67   22.30
  -4   9   1  349.96   18.00
  -4   9   1  281.97   19.90
  -4  -9   1  290.07   23.30
   4  -9  -1  309.17   19.80
   4   9   0  445.46   25.70
  -4   9   0  382.86   24.20
  -4  -9   0  434.76   27.60
   4  -9   0  395.36   24.20
  -4   9  -1   19.60    7.60
   4   9   1   31.80    9.70
  -4  -9  -1   14.50    8.70
   4  -9   1   15.60    8.60
  -4   9  -2   75.29   14.80
   4   9   2   63.19   12.80
  -4  -9  -2   43.10   10.30
   4  -9   2   55.69   12.00
  -4   9  -3  243.88   23.30
   4   9   3  268.27   17.00
   4   9   3  261.37   18.60
   4  -9   3  264.17   21.80
  -4  -9  -3  261.87   20.50
  -4   9  -4   78.59   16.80
   4   9   4   69.49   11.90
   4  -9   4   75.59   14.20
   4  -9   4   66.09   14.60
  -4  -9  -4   45.50   11.90
   4   9   5   50.09   11.50
   4   9   5   68.79    9.10
  -4   9  -5   86.09   15.50
  -4  -9  -5   41.60   11.30
   4  -9   5   77.19   15.40
   4  -9   5   60.49   14.50
  -4   9  -6  201.18   23.00
   4   9   6  209.48   19.40
   4  -9   6  173.98   22.40
   4  -9   6  228.78   22.10
  -4  -9  -6  193.48   16.70
  -4   9  -7   14.40    9.70
   4  -9   7   24.00   10.40
   4  -9   7   28.90    9.10
   4  10  -6  116.39   18.90
  -4 -10   6  161.68   20.30
   4  10  -5  239.28   21.20
  -4 -10   5  275.57   24.70
   4  10  -4   72.09   12.60
   4  10  -3   69.49   22.30
  -4  10   3  121.39   10.80
  -4 -10   3   95.09   16.80
  -4  10   2  198.98   14.60
   4  10  -2  193.08   18.70
  -4 -10   2  150.38   19.20
   4 -10  -2  185.58   14.70
  -4  10   1    2.30    7.50
  -4 -10   1   10.90    9.50
   4 -10  -1    6.20    6.60
  -4  10   0  148.99   15.80
   4 -10   0  127.39   14.80
  -4 -10   0  147.59   19.10
  -4  10  -1  135.99   15.70
   4  10   1  101.59   14.60
  -4 -10  -1  100.69   16.20
   4 -10   1  116.99   15.00
   4  10   2   95.09   12.00
  -4  10  -2   53.09   13.30
   4  10   2   87.09   13.70
   4 -10   2   76.99   14.30
   4  10   3   86.39   12.90
  -4 -10  -3  114.89   14.70
   4 -10   3   69.29   15.40
  -4 -10  -4   36.00   10.00
   4 -10   4   26.60   11.50
   4 -10   4   41.30   12.50
   4  10   5   31.00    7.60
  -4  10  -5   44.50   13.80
   4  10   5   23.20    9.60
   4 -10   5   21.50   11.40
   4  11  -4  309.37   22.80
  -4 -11   4  251.57   26.60
   4  11  -3   72.69   11.80
  -4  11   2   63.59    9.30
   4  11  -2   72.09   11.40
   4  11  -1   88.39   13.20
  -4  11   1   74.99   10.60
   4 -11  -1   73.99   11.10
   4  11   0  248.88   20.90
  -4 -11   0  219.48   23.60
   4 -11   0  294.27   19.30
   4  11   2  172.98   16.00
  -4 -11  -2  137.79   18.80
   4 -11   2  112.79   20.70
   5   0 -14  319.87   20.10
   5   0 -14  296.57   20.10
   5   0 -13    2.70    6.70
   5   0 -13   -3.00    6.10
   5   0 -12  612.74   29.60
   5   0 -12  585.34   42.90
   5   0 -12  579.64   29.70
   5   0 -11    0.10    5.50
   5   0 -11   -1.00    5.60
   5   0 -11   -6.30    6.90
   5   0 -11    7.60    7.10
   5   0 -11    4.70    6.00
   5   0 -10  473.45   28.00
   5   0 -10  467.85   34.90
   5   0 -10  522.55   26.00
   5   0 -10  501.85   25.30
   5   0 -10  515.15   28.20
   5   0  -9   -4.20    3.90
   5   0  -9    1.70    5.10
   5   0  -9    2.20    4.60
   5   0  -9   -5.70    4.90
   5   0  -9   -4.20    4.30
   5   0  -8  293.87   19.30
   5   0  -8  309.57   18.40
   5   0  -8  304.97   19.00
   5   0  -8  302.77   19.30
   5   0  -8  339.47   17.60
   5   0  -7    4.20    4.30
   5   0  -7    4.80    4.30
   5   0  -7    2.50    4.20
   5   0  -7    2.70    3.90
   5   0  -7    0.10    3.30
   5   0  -6    7.30    4.10
   5   0  -6    3.50    3.20
  -5   0   6    6.70    3.60
   5   0  -6   10.60    5.20
   5   0  -6   13.20    5.20
   5   0  -6   17.10    5.10
   5   0  -5    0.60    2.50
   5   0  -5    1.30    2.70
  -5   0   5    1.60    2.80
   5   0  -5   -1.50    3.00
   5   0  -4 1100.89   35.70
   5   0  -4 1174.38   36.50
  -5   0   4 1145.99   33.30
  -5   0   4 1111.09   35.50
   5   0  -4 1134.09   33.70
   5   0  -3    1.40    2.40
   5   0  -3   -0.40    2.00
   5   0  -3   -0.30    2.20
  -5   0   3   -0.10    2.60
  -5   0   3    2.90    2.50
   5   0  -2 2682.43   68.99
   5   0  -2 2779.82   68.99
  -5   0   2 2689.63   68.39
   5   0  -2 2717.63   70.39
  -5   0   2 2801.02   70.29
  -5   0   1   -0.60    2.70
  -5   0   1    1.80    2.40
   5   0  -1   -1.00    2.40
   5   0  -1   -0.60    3.10
  -5   0   0 2003.70   53.29
   5   0   0 1958.80   53.69
  -5   0   0 1975.50   52.79
   5   0   0 2016.80   53.19
   5   0   1    1.70    2.50
   5   0   1    1.10    2.60
   5   0   1    2.70    3.00
  -5   0  -1   -1.70    2.20
  -5   0  -2 5733.83  134.49
  -5   0  -2 5562.04  137.19
   5   0   2 5748.52  139.79
   5   0   2 5769.52  134.79
  -5   0  -3   -2.90    2.90
   5   0   3   -1.70    2.90
   5   0   3    0.20    2.90
  -5   0  -3    0.40    2.90
   5   0   4  861.21   24.00
  -5   0  -4  901.31   33.20
  -5   0  -4  908.41   29.30
   5   0   4  950.10   34.20
   5   0   4  917.11   29.50
   5   0   4  927.41   37.00
   5   0   5   -1.10    1.90
   5   0   5   -1.10    3.70
  -5   0  -5    3.30    3.50
   5   0   5    3.10    4.40
  -5   0  -5    3.90    3.90
  -5   0  -5   -1.40    3.30
   5   0   5    2.90    4.30
  -5   0  -6 4036.40  112.69
   5   0   6 3907.21   93.99
  -5   0  -6 4007.30  107.29
   5   0   6 4045.70  108.49
  -5   0  -6 4077.69  100.19
   5   0   6 4098.79  113.89
  -5   0  -7   -3.70    6.20
   5   0   7    1.10    2.50
  -5   0  -7   -1.70    4.60
   5   0   7    5.20    5.70
   5   0   8 2720.83   82.19
   5   0   8 2715.23   88.49
  -5   0  -8 2434.76   84.69
  -5   0  -8 2742.13   83.59
   5   0   9    1.50    5.80
  -5   0  -9   -3.10    5.90
   5   0   9   -7.50    5.40
   5   0  10  314.77   24.20
   5   0  10  353.06   35.00
   5   0  11   -2.00    7.30
   5   0  12   26.60   10.80
   5   1 -15  211.18   15.60
   5   1 -15  202.28   20.80
   5  -1 -15  295.47   14.90
   5  -1 -14   74.29   11.50
   5   1 -13   61.99   12.90
   5   1 -13   70.39   12.00
   5  -1 -13   73.99   11.90
   5  -1 -13   45.90   11.10
   5   1 -12  464.55   27.50
   5   1 -12  487.35   28.10
   5  -1 -12  467.55   25.30
   5  -1 -12  509.65   28.90
   5  -1 -12  564.24   30.10
   5  -1 -12  459.45   24.00
   5   1 -11  815.32   35.90
   5   1 -11  790.72   35.90
   5   1 -11  749.62   39.10
   5   1 -11  937.61   38.30
   5   1 -11  808.12   39.20
   5  -1 -11  771.72   36.60
   5  -1 -11  832.12   36.80
   5  -1 -11  826.02   32.10
   5  -1 -11  819.02   45.40
  -5  -1  11  816.52   39.00
   5  -1 -11  832.22   33.80
   5   1 -10   58.29   11.20
   5   1 -10   79.49   14.50
   5   1 -10   78.49   14.70
   5   1 -10   66.79   11.80
   5   1 -10   72.69   13.50
   5  -1 -10   67.79    9.40
   5  -1 -10   77.09   13.10
  -5  -1  10   56.69   10.80
   5  -1 -10   69.49   10.80
   5  -1 -10   57.19   11.80
   5   1  -9   50.19   12.20
   5   1  -9   52.39   10.80
   5   1  -9   51.89    9.70
   5   1  -9   54.29   11.20
   5   1  -9   47.30   11.10
   5  -1  -9   63.79   12.20
   5  -1  -9   48.20    9.80
   5  -1  -9   45.00    8.10
   5  -1  -9   42.80    8.60
   5  -1  -9   57.59   10.70
   5   1  -8  292.47   19.60
   5   1  -8  264.57   19.00
   5   1  -8  264.87   17.80
   5   1  -8  254.87   18.40
   5   1  -8  308.97   18.00
   5  -1  -8  281.97   18.00
  -5  -1   8  294.37   19.50
   5  -1  -8  291.17   17.20
   5  -1  -8  283.07   14.70
   5  -1  -8  295.37   16.90
   5  -1  -8  305.07   18.70
   5   1  -7 1220.68   42.20
   5   1  -7 1192.48   42.60
   5   1  -7 1185.58   43.00
   5   1  -7 1250.77   43.20
   5   1  -7 1292.17   40.90
  -5  -1   7 1261.17   44.00
   5  -1  -7 1213.28   39.20
   5  -1  -7 1217.48   40.10
   5  -1  -7 1235.08   41.70
   5  -1  -7 1257.87   36.40
   5  -1  -7 1179.28   42.10
   5   1  -6   13.00    5.00
   5   1  -6    9.50    4.80
   5   1  -6   10.00    4.50
  -5   1   6   11.30    6.20
   5   1  -6   11.10    5.40
   5   1  -6   15.00    5.40
   5  -1  -6   12.30    3.90
   5  -1  -6   11.60    4.40
   5  -1  -6   16.10    7.90
   5  -1  -6   10.70    4.70
  -5  -1   6    9.60    4.20
   5  -1  -6   17.80    5.30
  -5  -1   6   13.30    7.30
   5   1  -5 1318.27   39.20
  -5   1   5 1231.38   38.60
   5   1  -5 1205.08   39.80
   5   1  -5 1209.78   39.90
   5   1  -5 1191.58   40.40
  -5   1   5 1231.58   34.40
   5  -1  -5 1245.78   34.90
   5  -1  -5 1262.77   39.20
  -5  -1   5 1236.28   40.70
   5  -1  -5 1256.17   40.50
   5  -1  -5 1261.07   35.90
  -5  -1   5 1249.88   38.20
   5   1  -4 1690.13   50.79
  -5   1   4 1806.82   46.40
  -5   1   4 1812.92   50.69
   5   1  -4 1839.32   50.39
   5   1  -4 1812.02   51.99
  -5  -1   4 1817.32   49.99
   5  -1  -4 1847.92   47.00
  -5  -1   4 1809.42   51.99
   5  -1  -4 1763.82   50.89
   5  -1  -4 1799.12   51.99
   5   1  -3 1782.22   50.19
   5   1  -3 1889.61   50.89
  -5   1   3 1839.12   50.99
  -5   1   3 1851.81   47.40
   5   1  -3 1859.81   51.59
  -5  -1   3 1839.12   51.09
   5  -1  -3 1778.32   51.29
  -5  -1   3 1797.52   49.70
   5  -1  -3 1848.92   47.70
  -5   1   2 1162.48   36.50
  -5   1   2 1224.58   34.40
   5   1  -2 1254.27   36.60
   5   1  -2 1231.08   35.60
   5   1  -2 1257.77   37.20
   5  -1  -2 1237.78   34.90
   5  -1  -2 1283.37   37.70
  -5  -1   2 1178.58   36.50
  -5  -1   2 1176.28   35.80
  -5  -1   2 1270.47   36.30
   5   1  -1 1589.74   44.90
  -5   1   1 1567.84   45.60
   5   1  -1 1606.64   45.30
   5   1  -1 1575.24   42.70
  -5   1   1 1628.94   43.90
  -5  -1   1 1600.64   45.10
   5  -1  -1 1697.13   44.90
  -5  -1   1 1652.03   45.10
  -5  -1   1 1653.13   43.30
   5  -1  -1 1630.24   46.00
  -5   1   0  351.96   15.40
  -5   1   0  351.76   15.90
   5   1   0  331.07   12.30
   5   1   0  329.07   14.50
  -5  -1   0  340.17   15.50
   5  -1   0  349.27   16.00
  -5  -1   0  348.27   14.70
   5  -1   0  348.27   14.80
   5   1   1 2051.19   55.29
  -5   1  -1 2021.60   54.49
   5   1   1 1916.61   47.40
   5   1   1 1944.31   52.19
  -5   1  -1 2068.69   55.39
  -5  -1  -1 1984.80   52.29
   5  -1   1 2014.30   54.99
   5  -1   1 2011.00   54.89
  -5  -1  -1 2010.50   54.89
  -5   1  -2 2478.35   67.19
   5   1   2 2410.86   68.49
  -5   1  -2 2416.46   64.79
  -5   1  -2 2452.85   78.69
   5   1   2 2454.15   61.99
   5   1   2 2439.26   66.19
   5  -1   2 2539.75   65.59
  -5  -1  -2 2431.26   65.49
  -5  -1  -2 2443.06   61.89
   5   1   3  778.62   31.50
  -5   1  -3  746.73   29.30
  -5   1  -3  784.52   27.80
  -5   1  -3  820.22   31.00
  -5  -1  -3  822.92   29.40
   5  -1   3  830.72   28.50
   5  -1   3  786.52   31.00
  -5  -1  -3  798.42   24.80
  -5   1  -4  889.11   30.60
   5   1   4  861.31   31.60
   5   1   4  903.61   27.00
  -5   1  -4  880.51   33.00
   5   1   4  956.10   45.30
   5  -1   4  844.42   26.50
   5  -1   4  845.12   35.20
  -5  -1  -4  852.21   31.70
  -5  -1  -4  861.11   26.70
  -5   1  -5  172.78   14.80
  -5   1  -5  172.38   15.30
   5   1   5  167.18   13.20
   5   1   5  159.18   15.20
  -5  -1  -5  132.89   12.20
   5  -1   5  169.98   14.50
  -5  -1  -5  157.08    9.80
   5  -1   5  184.48   16.00
   5  -1   5  168.08    9.80
   5   1   6  233.98   23.30
  -5   1  -6  231.98   19.20
   5   1   6  232.78   19.20
  -5   1  -6  246.58   15.30
   5  -1   6  251.57   12.70
   5  -1   6  249.38   19.80
  -5  -1  -6  241.18   16.60
   5  -1   6  248.68   18.60
  -5   1  -7  265.07   21.70
   5   1   7  300.07   22.70
  -5   1  -7  287.37   16.90
   5   1   7  306.27   19.90
  -5  -1  -7  272.87   18.80
   5  -1   7  275.27   14.30
   5  -1   7  329.37   22.50
   5  -1   7  280.27   22.40
   5   1   8 1050.09   41.90
  -5   1  -8 1022.10   42.70
  -5   1  -8 1117.29   37.90
   5   1   8 1096.59   48.80
   5  -1   8 1036.00   33.80
  -5  -1  -8 1064.29   41.70
   5  -1   8 1088.39   45.40
   5  -1   8 1067.19   48.70
   5   1   9   52.09   11.00
   5   1   9   75.29   16.90
   5  -1   9   58.69    8.70
   5  -1   9   51.09   11.90
   5  -1   9   37.20    9.60
  -5  -1  -9   63.59   12.80
   5   1  10  101.59   14.80
   5   1  10  148.89   24.40
   5  -1  10  107.79   11.30
   5  -1  10  113.09   15.70
   5  -1  10  118.49   21.80
   5   1  11   99.59   19.20
   5   1  11  166.38   17.20
   5  -1  11  151.98   20.00
   5  -1  11  123.59   29.30
   5   1  12  168.48   23.20
   5   1  12  226.38   20.30
   5  -1  12  154.68   19.60
   5  -1  12  192.98   24.00
   5  -2 -14  195.08   13.60
   5  -2 -14  178.28   11.90
   5   2 -13   45.10   13.30
   5   2 -13   25.60   10.40
  -5  -2  13   47.30   15.10
   5  -2 -13   35.30    8.60
   5   2 -12   51.19   12.00
   5   2 -12   50.69   11.90
   5  -2 -12   67.99   11.60
  -5  -2  12   53.69   12.20
   5  -2 -12   54.69   10.20
   5   2 -11  375.96   25.20
   5   2 -11  371.56   25.20
  -5  -2  11  352.36   25.60
   5  -2 -11  481.85   24.60
   5  -2 -11  453.75   24.20
   5  -2 -11  472.95   26.20
   5  -2 -11  371.76   21.20
   5  -2 -11  361.76   18.20
   5   2 -10  531.55   29.00
   5   2 -10  550.34   32.20
   5   2 -10  576.24   29.70
   5   2 -10  587.44   30.40
   5   2 -10  592.04   30.90
   5  -2 -10  516.75   25.70
  -5  -2  10  541.65   30.50
   5  -2 -10  569.74   26.90
   5  -2 -10  549.05   21.40
   5  -2 -10  584.14   27.70
   5   2  -9   20.70    8.80
   5   2  -9   25.50    8.90
   5   2  -9   25.30    8.60
   5   2  -9   20.50    9.40
   5   2  -9   45.30   10.80
  -5  -2   9   19.80    7.80
   5  -2  -9   16.20    6.70
   5  -2  -9   23.80    6.90
   5  -2  -9   18.50    6.80
   5  -2  -9   26.30    5.50
   5  -2  -9   17.60    7.00
   5   2  -8  866.11   37.90
   5   2  -8  880.51   36.90
   5   2  -8  952.50   36.40
   5   2  -8  923.61   38.70
   5   2  -8  947.11   37.30
   5  -2  -8  901.81   32.40
   5  -2  -8  880.51   34.00
   5  -2  -8  912.11   36.60
  -5  -2   8  974.10   39.00
   5  -2  -8  955.50   33.50
   5  -2  -8  919.51   27.70
   5   2  -7 1217.18   44.00
  -5   2   7 1334.97   42.80
   5   2  -7 1220.38   45.00
   5   2  -7 1248.18   45.30
   5   2  -7 1268.07   44.40
   5   2  -7 1281.37   49.00
  -5  -2   7 1331.97   46.40
   5  -2  -7 1249.28   38.30
   5  -2  -7 1294.47   34.70
   5  -2  -7 1277.27   41.70
   5  -2  -7 1272.27   41.00
   5  -2  -7 1242.68   43.90
   5   2  -6 1191.58   39.90
   5   2  -6 1155.28   41.50
   5   2  -6 1171.28   41.20
  -5   2   6 1183.68   39.30
   5   2  -6 1147.79   40.70
   5  -2  -6 1175.88   31.70
   5  -2  -6 1109.49   33.70
  -5  -2   6 1207.98   47.90
   5  -2  -6 1198.48   41.00
   5  -2  -6 1231.58   38.60
  -5   2   5   84.39    5.90
   5   2  -5   76.69    9.30
  -5   2   5  100.59    9.00
   5   2  -5   86.59    9.50
   5   2  -5   69.89    8.70
   5   2  -5   84.79    9.90
  -5  -2   5   77.09    8.70
  -5  -2   5   89.09    9.60
   5  -2  -5   88.19    6.00
   5  -2  -5   85.69    8.90
   5  -2  -5   86.09    5.90
   5   2  -4 2903.11   79.89
  -5   2   4 2773.72   73.99
   5   2  -4 2897.11   75.79
   5   2  -4 2850.31   76.59
   5   2  -4 2826.82   85.59
  -5   2   4 2797.12   67.79
  -5  -2   4 2783.22   76.09
   5  -2  -4 2898.91   74.89
   5  -2  -4 2836.42   66.09
   5  -2  -4 2836.12   68.39
   5   2  -3 3437.76   89.69
  -5   2   3 3441.26   83.09
  -5   2   3 3564.64   88.79
   5   2  -3 3531.35   89.39
   5   2  -3 3471.25   88.59
   5  -2  -3 3559.44   83.79
   5  -2  -3 3526.05   89.19
  -5  -2   3 3416.16   88.49
  -5  -2   3 3619.64   89.59
   5   2  -2 2449.35   64.69
  -5   2   2 2344.17   64.29
   5   2  -2 2353.66   62.59
  -5   2   2 2384.16   60.19
   5   2  -2 2444.06   64.79
  -5  -2   2 2497.55   63.49
   5  -2  -2 2475.25   65.29
  -5  -2   2 2358.86   63.89
   5   2  -1 1095.09   34.30
  -5   2   1 1124.99   32.30
   5   2  -1 1076.49   33.20
   5   2  -1 1081.59   31.20
  -5   2   1 1066.99   34.30
  -5  -2   1 1068.69   31.50
   5  -2  -1 1065.69   34.70
  -5  -2   1  981.50   32.90
   5  -2  -1 1056.49   28.90
   5   2   0  473.95   18.10
  -5   2   0  468.35   19.80
  -5   2   0  451.85   18.40
   5   2   0  453.65   19.20
   5   2   0  439.86   15.40
  -5  -2   0  447.26   15.70
  -5  -2   0  449.46   18.90
   5  -2   0  446.56   16.90
  -5   2  -1 2215.28   60.59
  -5   2  -1 2262.17   61.39
   5   2   1 2264.07   60.69
   5   2   1 2198.78   52.99
   5   2   1 2185.48   57.09
  -5   2  -1 2271.67   59.59
  -5  -2  -1 2202.98   60.19
   5  -2   1 2265.57   59.69
  -5  -2  -1 2131.69   56.69
  -5  -2  -1 2249.27   53.29
   5  -2   1 2192.68   61.49
   5   2   2  161.68   11.40
   5   2   2  159.48    8.90
  -5  -2  -2  167.58   11.90
   5  -2   2  166.78   11.90
  -5  -2  -2  155.68    9.10
   5  -2   2  169.88   12.30
   5   2   3  346.47   13.40
   5   2   3  359.46   18.00
  -5   2  -3  350.16   18.80
  -5   2  -3  350.66   18.00
   5   2   3  358.86   20.30
  -5  -2  -3  335.27   13.30
   5  -2   3  352.16   19.00
  -5  -2  -3  332.97   17.20
   5  -2   3  346.57   19.70
   5  -2   3  369.66   18.70
  -5   2  -4  109.39   12.10
   5   2   4  119.79   12.80
  -5   2  -4  117.59   11.30
   5  -2   4  110.19   14.70
  -5  -2  -4  115.89   10.50
   5   2   5  539.55   28.30
  -5   2  -5  520.85   27.10
  -5   2  -5  538.65   24.70
   5   2   5  544.35   23.50
   5  -2   5  538.65   21.90
   5  -2   5  585.54   29.10
  -5  -2  -5  537.05   24.20
   5  -2   5  548.55   27.80
  -5   2  -6  264.47   17.50
   5   2   6  260.07   16.40
  -5   2  -6  303.07   21.10
   5   2   6  271.67   21.20
   5  -2   6  283.17   20.70
   5  -2   6  283.97   21.60
  -5  -2  -6  275.17   17.50
   5  -2   6  275.57   15.30
  -5   2  -7  648.04   33.70
   5   2   7  658.03   29.10
   5   2   7  643.84   34.50
  -5   2  -7  650.53   28.60
   5  -2   7  650.43   33.80
  -5  -2  -7  616.64   28.70
   5  -2   7  639.84   25.90
   5  -2   7  683.63   35.70
   5   2   8   83.39   14.40
   5   2   8  110.29   12.50
  -5   2  -8  138.39   13.80
   5  -2   8  112.49   15.90
   5  -2   8  104.79   14.90
   5  -2   8  101.29   10.50
  -5  -2  -8   89.49   11.90
   5   2   9  177.38   19.70
   5   2   9  144.99   15.60
  -5   2  -9  163.88   15.50
   5  -2   9  141.69   18.50
  -5  -2  -9  134.69   15.30
   5  -2   9  197.18   20.10
   5  -2   9  158.58   15.80
   5   2  10   34.50    9.10
  -5   2 -10   26.10    9.20
   5   2  10   30.40   15.00
   5  -2  10   31.50   11.80
  -5  -2 -10   23.60    8.70
   5  -2  10   41.80   11.50
   5  -2  10   40.00    8.10
   5   2  11  316.57   28.50
   5   2  11  312.37   22.10
  -5   2 -11  283.57   21.00
   5  -2  11  334.37   26.20
   5  -2  11  268.57   18.90
   5  -2  11  317.17   28.70
   5   2  12   45.50   12.90
   5  -2  12   64.09   12.10
   5  -2  12   70.09   12.80
   5   3 -14  119.89   15.30
   5   3 -14   95.69   15.70
   5   3 -13  111.99   13.80
   5   3 -12    8.00    6.80
   5   3 -12   13.20    7.70
  -5  -3  12    9.40    7.30
   5   3 -11  188.48   19.50
   5   3 -11  184.78   19.70
   5  -3 -11  214.88   17.60
   5  -3 -11  217.28   15.50
  -5  -3  11  163.78   18.60
   5  -3 -11  237.48   19.50
   5   3 -10   47.40   11.60
   5   3 -10   35.90   11.50
  -5  -3  10   34.80    9.80
   5  -3 -10   40.10    9.00
   5  -3 -10   36.40    9.90
   5  -3 -10   41.40   11.10
   5  -3 -10   38.80    8.50
   5   3  -9 1499.35   54.89
   5   3  -9 1565.14   56.79
   5   3  -9 1393.86   55.59
   5   3  -9 1562.94   54.69
   5  -3  -9 1510.75   47.10
  -5  -3   9 1568.64   56.69
   5  -3  -9 1508.85   49.10
   5  -3  -9 1599.24   53.89
   5  -3  -9 1444.56   46.80
   5   3  -8   23.60    8.50
   5   3  -8   21.40    7.00
   5   3  -8   16.90    7.40
   5   3  -8   31.10    9.30
   5  -3  -8   16.90    6.10
   5  -3  -8   31.80    7.20
  -5  -3   8   23.80    7.20
   5  -3  -8   18.50    6.20
   5  -3  -8   25.80    5.80
  -5   3   7  738.33   28.30
   5   3  -7  692.53   32.10
   5   3  -7  747.93   31.70
   5   3  -7  694.23   33.00
   5   3  -7  704.93   32.00
   5   3  -7  746.83   31.70
   5  -3  -7  708.03   27.70
  -5  -3   7  718.53   32.60
   5  -3  -7  693.23   27.30
   5  -3  -7  700.53   24.20
  -5   3   6   84.69   13.50
   5   3  -6   65.79   10.30
   5   3  -6   58.69   10.10
   5   3  -6   71.79   10.00
  -5  -3   6   73.79   10.30
   5  -3  -6   71.69    8.90
   5  -3  -6   73.89    6.10
  -5   3   5  192.68   15.20
   5   3  -5  166.38   13.80
   5   3  -5  191.68   15.00
   5   3  -5  179.28   14.10
  -5  -3   5  190.98   17.80
   5  -3  -5  175.68   12.50
  -5  -3   5  191.38   13.80
   5   3  -4  445.96   21.50
   5   3  -4  446.56   21.30
  -5   3   4  457.35   14.30
   5   3  -4  451.45   21.90
  -5   3   4  467.05   21.00
   5  -3  -4  467.55   20.80
  -5  -3   4  442.26   21.00
  -5  -3   4  441.76   21.60
  -5   3   3  749.13   22.20
   5   3  -3  677.13   34.80
  -5   3   3  755.02   28.40
   5   3  -3  752.82   28.60
   5   3  -3  738.63   34.70
  -5  -3   3  764.02   28.30
  -5  -3   3  721.13   27.80
   5  -3  -3  751.22   28.10
   5   3  -2  986.70   32.10
  -5   3   2  947.01   43.00
   5   3  -2 1001.40   33.70
   5   3  -2 1016.50   34.00
  -5   3   2 1006.50   29.30
  -5  -3   2  994.80   33.70
   5  -3  -2  963.30   33.90
  -5  -3   2  958.80   32.20
   5   3  -1  930.41   31.80
   5   3  -1  921.81   30.70
  -5   3   1  869.41   35.40
   5   3  -1  908.71   28.80
  -5   3   1  943.21   28.90
  -5  -3   1  901.61   29.20
   5  -3  -1  870.51   24.80
   5  -3  -1  899.71   32.20
  -5  -3   1  834.82   39.00
   5   3   0 1130.99   34.20
  -5   3   0 1084.19   31.80
  -5   3   0 1056.69   36.40
   5   3   0 1121.89   36.10
   5  -3   0 1117.79   37.80
  -5  -3   0 1099.99   32.30
   5  -3   0 1071.79   31.90
  -5  -3   0 1094.69   45.60
   5   3   1  670.83   25.70
  -5   3  -1  701.53   27.50
  -5   3  -1  660.03   24.10
   5   3   1  690.83   23.10
   5  -3   1  649.93   24.10
  -5  -3  -1  679.23   21.10
   5   3   2 2614.04   70.89
   5   3   2 2652.93   65.49
  -5   3  -2 2587.64   70.79
   5  -3   2 2711.73   74.09
   5  -3   2 2607.14   74.69
   5  -3   2 2617.44   71.39
  -5  -3  -2 2597.94   62.09
  -5  -3  -2 2593.64   70.89
  -5   3  -3   17.50    6.30
   5   3   3   14.20    4.90
  -5   3  -3   16.40    5.90
  -5  -3  -3   10.60    4.90
   5  -3   3   18.10    6.40
   5  -3   3   20.40    5.90
   5   3   4  406.06   20.00
   5   3   4  410.06   23.70
  -5   3  -4  414.56   21.60
  -5   3  -4  400.06   22.00
   5  -3   4  402.86   23.20
   5  -3   4  410.36   23.00
  -5  -3  -4  395.16   19.70
   5   3   5  893.01   30.90
  -5   3  -5  865.91   34.90
  -5   3  -5  903.01   37.30
   5   3   5  876.31   38.30
   5  -3   5  930.11   38.70
   5  -3   5  881.51   38.30
  -5  -3  -5  857.41   32.40
   5  -3   5  910.81   33.20
  -5   3  -6   62.19   10.30
   5   3   6   46.00    8.00
   5   3   6   54.29   11.20
  -5   3  -6   75.79   13.70
   5  -3   6   58.59   11.30
   5  -3   6   64.19   12.40
  -5  -3  -6   61.89    9.50
   5  -3   6   47.80    9.20
   5   3   7  805.02   39.40
  -5   3  -7  796.92   34.30
   5   3   7  805.52   31.10
  -5   3  -7  789.92   38.80
   5  -3   7  821.62   32.30
   5  -3   7  825.22   40.00
   5  -3   7  789.32   39.30
  -5  -3  -7  766.02   32.10
   5   3   8   42.70    9.30
   5   3   8   27.10   10.10
  -5   3  -8   42.90   11.40
   5  -3   8   36.70    8.30
   5  -3   8   35.80   10.20
   5  -3   8   39.80   13.00
   5   3   9   23.80    8.90
  -5   3  -9    3.30    7.60
   5   3   9   27.00    8.00
  -5  -3  -9   31.00   13.20
   5  -3   9    4.30    5.50
   5  -3   9   15.20    7.60
   5   3  10   12.80    7.60
   5   3  10   23.30    8.80
   5  -3  10   12.70   10.50
  -5  -3 -10   24.80    9.30
   5  -3  10   15.40    9.30
   5  -3  10   14.20    6.20
   5   3  11   27.40   12.10
   5   3  11   36.60    9.60
   5  -3  11   33.70    8.80
   5  -3  11   16.50   10.50
   5  -3  11   26.80   11.90
   5   3  12  155.68   19.70
   5   3  12  188.28   15.40
   5  -3  12  131.49   18.70
   5  -3  12  181.18   14.80
   5   4 -13  126.99   17.10
   5   4 -13  126.59   17.30
   5   4 -12  323.47   32.90
  -5  -4  12  296.17   25.70
   5   4 -11   89.89   16.20
   5  -4 -11   83.99   14.70
   5  -4 -11   87.39   11.20
  -5  -4  11   99.89   15.60
   5   4 -10  476.85   30.00
   5  -4 -10  481.35   27.80
   5  -4 -10  470.95   22.20
   5  -4 -10  557.84   24.70
  -5  -4  10  502.45   30.90
   5   4  -9  362.86   26.40
   5   4  -9  381.06   24.20
   5   4  -9  372.86   24.80
   5  -4  -9  349.17   19.30
  -5  -4   9  356.76   24.80
   5  -4  -9  357.66   18.80
   5  -4  -9  315.27   29.10
   5   4  -8  271.27   22.80
   5   4  -8  364.06   22.90
   5   4  -8  354.16   21.70
   5   4  -8  307.37   22.10
   5  -4  -8  308.97   17.80
   5  -4  -8  295.77   17.20
  -5  -4   8  290.87   21.90
   5   4  -7  232.08   19.80
   5   4  -7  244.18   19.00
   5   4  -7  258.07   19.10
  -5   4   7  268.37   15.50
   5   4  -7  275.97   18.70
  -5  -4   7  258.57   19.50
   5  -4  -7  241.68   14.70
   5  -4  -7  243.68   15.80
   5   4  -6  124.79   13.40
   5   4  -6   93.59   12.60
   5   4  -6  132.29   13.80
  -5   4   6  114.99   11.30
  -5  -4   6  110.79   13.10
   5  -4  -6  129.29   11.40
   5   4  -5  295.07   19.20
  -5   4   5  339.77   17.40
   5   4  -5  302.97   19.10
   5   4  -5  328.77   19.80
  -5  -4   5  322.47   19.20
  -5  -4   5  316.17   19.80
   5  -4  -5  331.87   18.20
   5   4  -4  478.35   23.20
   5   4  -4  476.35   23.20
  -5   4   4  475.45   21.60
   5   4  -4  462.25   22.80
   5  -4  -4  481.85   22.00
  -5  -4   4  475.65   27.80
  -5  -4   4  434.36   22.40
  -5   4   3 1839.72   54.59
   5   4  -3 1867.21   55.69
   5   4  -3 1859.01   55.19
   5   4  -3 1788.62   58.09
  -5   4   3 1851.21   47.30
  -5  -4   3 1883.91   56.19
  -5  -4   3 1831.12   55.39
   5  -4  -3 1896.81   55.59
  -5   4   2 1785.82   47.70
   5   4  -2 1785.02   53.79
  -5   4   2 1700.63   52.79
   5   4  -2 1769.52   52.49
   5   4  -2 1754.72   53.59
  -5  -4   2 1787.72   52.89
   5  -4  -2 1846.42   54.69
   5   4  -1  555.44   24.00
   5   4  -1  537.95   22.00
  -5   4   1  565.54   24.60
  -5   4   1  541.05   17.40
   5  -4  -1  526.25   24.70
  -5  -4   1  540.05   23.50
  -5  -4   1  576.54   22.90
   5   4   0  524.75   21.30
   5   4   0  486.75   22.10
  -5   4   0  506.65   18.70
  -5   4   0  465.95   23.00
  -5  -4   0  501.75   20.10
  -5  -4   0  493.35   21.90
   5  -4   0  510.15   24.30
   5   4   1   92.49    9.70
  -5   4  -1   87.49    8.60
   5   4   1   94.19    8.40
   5  -4   1   93.59    8.80
  -5  -4  -1   91.09    7.70
  -5  -4  -1  104.19    9.90
   5  -4   1  101.39   12.10
   5  -4   1  100.69   10.90
  -5   4  -2  263.57   17.40
   5   4   2  249.38   12.20
   5   4   2  240.28   14.80
  -5   4  -2  216.68   16.20
  -5  -4  -2  251.37   11.60
   5  -4   2  250.47   17.50
  -5  -4  -2  229.88   14.70
   5  -4   2  228.28   14.90
  -5   4  -3  724.53   29.90
  -5   4  -3  694.13   30.60
   5   4   3  721.93   28.10
  -5  -4  -3  702.93   27.90
   5  -4   3  721.83   32.20
  -5  -4  -3  730.63   21.70
   5  -4   3  725.73   30.30
  -5   4  -4  826.02   34.80
   5   4   4  861.11   32.00
  -5   4  -4  815.02   34.70
   5   4   4  851.31   37.20
  -5  -4  -4  836.32   31.60
   5  -4   4  858.11   37.40
   5  -4   4  859.71   35.80
   5   4   5 1192.08   47.10
  -5   4  -5 1153.68   45.20
   5   4   5 1132.79   35.30
  -5   4  -5 1119.89   43.50
   5  -4   5 1163.18   42.20
   5  -4   5 1185.38   47.60
  -5  -4  -5 1133.79   39.40
   5  -4   5 1195.78   46.30
  -5   4  -6   99.89   15.10
   5   4   6   69.29   12.50
  -5   4  -6   88.39   12.30
   5   4   6   57.09    7.90
   5  -4   6   64.29   13.10
  -5  -4  -6   76.49    9.70
   5  -4   6   57.99   11.70
   5  -4   6   69.79   10.90
   5   4   7  318.97   16.80
  -5   4  -7  298.97   21.80
   5   4   7  288.47   22.90
   5  -4   7  287.27   23.20
   5  -4   7  272.47   23.20
  -5  -4  -7  295.67   18.30
   5  -4   7  281.47   19.40
   5   4   8  297.27   24.40
  -5   4  -8  246.68   20.70
   5   4   8  254.77   16.50
   5  -4   8  266.67   24.10
   5  -4   8  257.27   23.30
  -5  -4  -8  264.17   17.30
   5  -4   8  231.58   18.10
   5   4   9   12.30    8.40
   5   4   9   27.30   10.70
   5  -4   9   43.00   16.80
  -5  -4  -9   12.30    7.30
   5  -4   9    3.40    9.60
   5  -4   9   17.70    7.10
   5   4  10  117.09   16.60
   5   4  10   97.99   12.60
   5  -4  10  106.29   16.00
   5  -4  10   85.09   15.40
   5  -4  10  121.99   12.70
   5  -4  11   64.09   17.00
   5  -4  11   60.79   12.40
   5  -4  11   61.89   15.70
   5   5 -13   33.10    8.80
  -5  -5  13   13.00    9.00
   5   5 -12   46.10   12.90
  -5  -5  12   67.19   14.50
   5   5 -11  149.19   31.50
  -5  -5  11  163.78   20.70
   5   5 -10  357.56   26.70
  -5  -5  10  325.57   25.90
   5  -5 -10  351.06   26.60
   5  -5 -10  341.07   18.30
   5   5  -9  157.48   17.60
  -5   5   9  159.88   11.60
   5  -5  -9  148.89   11.60
  -5  -5   9  114.29   15.80
   5  -5  -9  116.59   11.70
   5  -5  -8  193.88   12.40
   5  -5  -8  157.78   13.40
  -5  -5   8  187.08   18.40
   5   5  -7    8.60    6.90
   5   5  -7   23.90    8.20
   5   5  -7    0.80    6.30
   5  -5  -7    4.20    4.50
  -5  -5   7    4.40    5.00
   5  -5  -7    9.50    5.70
   5   5  -6   88.39   12.90
   5   5  -6   85.29   12.50
  -5   5   6   73.89   10.50
   5   5  -6   89.09   13.10
  -5  -5   6   74.39   11.90
   5  -5  -6   73.39   10.30
   5   5  -5 1203.58   44.90
  -5   5   5 1205.88   41.00
   5   5  -5 1198.08   44.50
   5   5  -5 1220.48   45.10
   5  -5  -5 1229.98   41.90
  -5  -5   5 1217.08   45.90
   5   5  -4  268.37   18.60
   5   5  -4  288.77   19.20
  -5   5   4  278.77   17.10
  -5  -5   4  278.47   18.80
   5  -5  -4  280.37   17.80
  -5  -5   4  297.67   19.50
   5   5  -3  210.58   15.40
  -5   5   3  236.48   11.20
  -5   5   3  204.98   15.10
   5   5  -3  220.18   16.40
  -5  -5   3  219.68   16.00
  -5  -5   3  237.88   16.90
   5   5  -2  408.56   21.60
   5   5  -2  409.06   20.10
  -5   5   2  387.16   21.10
   5  -5  -2  416.86   22.30
  -5  -5   2  403.76   21.30
  -5  -5   2  407.36   21.30
   5   5  -1   -0.80    3.60
  -5   5   1    4.90    4.80
  -5   5   1    1.30    2.40
   5   5  -1   -3.80    3.60
   5  -5  -1    3.60    5.10
  -5  -5   1    2.90    4.00
  -5  -5   1   -0.70    3.90
   5  -5  -1    2.90    4.10
  -5   5   0   88.59   10.90
   5   5   0   69.69   11.50
   5   5   0   68.29    8.50
  -5   5   0   73.49    7.80
  -5  -5   0   72.99    8.90
   5  -5   0   83.59   11.80
  -5  -5   0   75.69   10.20
   5  -5   0   80.69   10.40
  -5   5  -1  713.63   32.30
   5   5   1  754.72   30.10
   5   5   1  784.12   26.50
   5   5   1  802.62   28.20
  -5   5  -1  739.73   27.90
  -5  -5  -1  777.92   30.00
  -5  -5  -1  761.32   27.80
   5  -5   1  807.42   33.50
   5   5   2  399.66   20.30
  -5   5  -2  357.06   22.20
   5   5   2  397.76   17.40
  -5   5  -2  355.36   22.20
  -5   5  -2  381.26   19.90
  -5  -5  -2  376.06   17.20
   5  -5   2  377.36   22.60
  -5  -5  -2  379.36   19.90
   5   5   3  251.97   16.00
  -5   5  -3  221.38   17.00
  -5   5  -3  227.08   18.30
  -5  -5  -3  228.48   15.50
   5  -5   3  252.17   19.10
  -5  -5  -3  230.88   12.60
  -5   5  -4  285.87   24.60
   5   5   4  272.77   24.90
  -5   5  -4  277.77   20.10
  -5  -5  -4  275.07   17.30
   5  -5   4  277.97   20.00
  -5  -5  -4  306.87   13.10
   5  -5   4  296.37   21.90
   5   5   5  771.42   30.50
  -5   5  -5  754.02   35.30
  -5   5  -5  696.23   34.30
   5   5   5  716.43   23.50
   5   5   5  760.12   36.70
   5  -5   5  761.72   34.40
  -5  -5  -5  776.12   29.70
   5  -5   5  762.92   36.50
   5  -5   5  746.53   37.80
  -5   5  -6  147.99   15.60
   5   5   6  128.79   16.00
   5   5   6  111.19    8.80
  -5   5  -6  157.78   17.20
  -5  -5  -6  126.79   12.40
   5  -5   6  122.99   16.70
   5  -5   6  132.99   16.30
   5  -5   6  123.69   14.00
   5   5   7  154.48   17.70
   5   5   7  166.58   10.80
   5  -5   7  156.88   18.40
  -5  -5  -7  140.19   13.80
   5  -5   7  163.48   16.00
   5  -5   7  134.19   18.40
   5   5   8  382.46   28.30
   5   5   8  418.36   18.10
   5  -5   8  402.36   25.30
   5  -5   8  429.66   30.80
  -5  -5  -8  342.27   21.50
   5  -5   8  377.26   35.50
   5   5   9   17.00    5.20
   5   5   9   17.10   14.80
   5  -5   9    4.60    7.70
   5  -5   9   16.20   11.00
  -5  -5  -9   24.00    7.00
   5  -5   9   20.50    7.60
   5   5  10  322.37   16.80
   5   5  10  301.17   27.30
   5  -5  10  275.57   22.00
  -5  -5 -10  329.57   21.40
   5  -5  10  296.57   28.90
   5   5  11  181.58   21.30
   5   5  11  207.88   12.20
  -5  -5 -11  170.78   18.80
   5  -5  11  221.98   18.90
   5  -5  11  213.38   22.50
   5   6 -12   73.99   16.30
  -5  -6  12   66.69   15.30
   5   6 -11  290.57   21.90
  -5  -6  11  205.48   22.20
   5   6 -10   10.00    8.30
   5  -6 -10   25.60    6.80
  -5  -6  10   18.90    9.00
   5   6  -9    5.40    7.20
  -5  -6   9    8.40    7.70
   5  -6  -9   13.20    6.20
   5   6  -8   91.59   15.10
   5  -6  -8  130.29    8.70
  -5  -6   8   79.89   13.70
   5   6  -7  576.04   32.40
   5   6  -7  636.44   33.70
  -5   6   7  641.74   27.40
   5  -6  -7  611.94   28.60
   5  -6  -7  606.34   21.70
  -5  -6   7  581.64   33.20
   5   6  -6   26.50    8.00
   5   6  -6   15.10    6.90
  -5  -6   6   18.40    7.90
   5  -6  -6   21.20    7.50
  -5   6   5   70.79   10.00
   5   6  -5   56.89   11.20
  -5  -6   5   46.20   10.10
   5  -6  -5   50.49   10.10
   5   6  -4 1003.90   38.70
  -5   6   4  967.60   36.60
   5   6  -4  958.10   39.80
  -5  -6   4 1000.60   41.20
   5  -6  -4  965.50   38.10
  -5   6   3   23.30    4.80
  -5   6   3   13.70    4.90
   5   6  -3    9.70    6.80
   5   6  -3   14.70    6.70
  -5  -6   3   10.50    5.70
   5  -6  -3   17.60    6.10
   5  -6  -3   17.60    7.50
  -5  -6   3   15.30    6.90
  -5   6   2  104.59   12.30
   5   6  -2  108.29   12.50
   5   6  -2   99.69   12.20
  -5  -6   2  104.19   12.80
   5  -6  -2  107.79   13.40
  -5  -6   2  111.69   12.70
   5  -6  -2  108.09   11.20
   5   6  -1   40.10    8.30
  -5   6   1   40.90    9.20
  -5   6   1   40.10    6.70
   5   6  -1   36.20    8.30
   5  -6  -1   43.10    8.70
  -5  -6   1   34.10    8.10
  -5  -6   1   47.80   10.70
   5   6   0  510.85   21.70
  -5   6   0  480.65   26.60
  -5   6   0  495.75   21.10
   5   6   0  532.45   25.60
  -5  -6   0  552.94   26.90
  -5  -6   0  531.55   25.50
   5  -6   0  543.65   27.50
  -5   6  -1  387.66   23.60
   5   6   1  376.26   16.90
  -5  -6  -1  398.36   20.40
  -5  -6  -1  355.16   20.80
   5  -6   1  381.16   22.80
   5   6   2  968.70   33.30
  -5   6  -2  988.10   48.20
   5   6   2  984.10   36.50
  -5   6  -2  978.30   36.50
   5   6   2  959.70   29.40
   5  -6   2 1033.40   41.40
  -5  -6  -2  981.10   36.40
  -5  -6  -2 1011.70   34.90
   5   6   3  360.66   16.90
  -5   6  -3  428.16   22.10
  -5   6  -3  383.46   28.70
   5   6   3  377.66   20.50
  -5  -6  -3  369.16   20.90
  -5  -6  -3  376.16   18.30
   5   6   4   36.40    8.20
  -5   6  -4   35.70   10.20
  -5   6  -4   20.90    7.70
   5  -6   4   31.40   10.40
  -5  -6  -4   43.00    9.30
  -5  -6  -4   35.50    7.00
  -5   6  -5  223.78   19.50
   5   6   5  205.38   15.10
   5   6   5  207.48   19.70
   5  -6   5  201.58   20.30
  -5  -6  -5  228.88   15.80
   5  -6   5  222.68   19.30
  -5  -6  -5  205.08   12.00
   5   6   6    8.20    7.20
   5  -6   6   10.50    8.40
  -5  -6  -6    7.50    6.80
   5   6   7  263.57   23.10
   5  -6   7  272.97   25.60
   5  -6   7  280.97   22.30
  -5  -6  -7  325.37   19.50
   5   6   8  159.68   18.80
   5  -6   8  214.08   16.40
  -5  -6  -8  218.78   15.70
   5  -6   8  138.09   19.30
   5   6   9  218.48   20.40
   5   6   9  225.88   20.70
   5  -6   9  204.48   18.50
   5  -6   9  168.88   22.40
   5   6  10   79.09   12.00
  -5  -7  12  180.88   22.10
   5   7 -11  264.77   23.00
  -5  -7  11  260.27   23.40
   5   7 -10   51.59   14.20
  -5  -7  10   67.49   15.10
   5   7  -8  122.69   17.60
  -5  -7   8  120.49   17.70
   5   7  -7   51.59   12.80
  -5  -7   7   56.89   12.40
  -5   7   6  456.75   24.20
   5   7  -6  471.35   26.90
   5   7  -6  377.96   26.40
  -5  -7   6  423.96   28.50
   5   7  -5   35.70    9.80
  -5   7   5   39.90    8.50
   5  -7  -5   37.70    7.50
  -5  -7   5   29.40    8.60
   5   7  -4   46.20   11.50
  -5   7   4   35.70   10.00
  -5  -7   4   33.70    9.30
   5  -7  -4   39.80    7.40
  -5   7   3   38.10    9.90
   5   7  -3   42.00    9.30
  -5   7   3   56.19    8.40
   5   7  -3   58.59   10.80
  -5  -7   3   26.30    8.10
   5  -7  -3   42.40    8.10
   5   7  -2    4.30    6.00
   5   7  -2   -0.30    6.60
  -5  -7   2    4.20    5.10
   5  -7  -2    7.60    5.30
  -5   7   1  455.75   36.10
   5   7  -1  561.14   28.10
   5   7  -1  580.14   23.70
  -5   7   1  546.75   20.80
  -5  -7   1  514.55   27.40
   5  -7  -1  528.85   30.30
  -5  -7   1  493.05   27.20
  -5   7   0  445.36   20.40
   5   7   0  462.65   20.40
   5   7   0  424.36   24.30
  -5  -7   0  407.96   23.90
  -5  -7   0  462.55   24.80
   5  -7   0  450.75   24.60
   5   7   1 1141.89   42.00
   5   7   1 1095.59   34.30
  -5   7  -1 1123.99   45.40
  -5   7  -1 1098.29   38.50
  -5  -7  -1 1049.20   40.40
  -5  -7  -1 1171.68   41.80
  -5   7  -2  379.36   20.70
   5   7   2  342.07   20.60
   5  -7   2  328.87   23.70
  -5  -7  -2  373.76   20.90
  -5  -7  -2  331.87   21.30
  -5   7  -3  259.67   17.60
   5   7   3  217.68   14.80
   5   7   3  188.98   15.30
  -5  -7  -3  239.08   16.50
   5  -7   3  209.38   20.10
  -5  -7  -3  194.38   17.10
  -5   7  -4    6.50    6.90
   5  -7   4   -6.00    5.50
  -5  -7  -4   16.20    4.70
   5   7   5   35.90   10.50
   5   7   5   43.80    9.10
  -5  -7  -5   43.30    8.20
   5  -7   5   42.30   11.50
   5  -7   5   46.80   11.70
   5  -7   6  229.38   21.20
  -5  -7  -6  236.68   13.80
  -5  -7  -6  193.48   17.80
   5  -7   6  227.48   23.30
   5   7   7    6.80    8.80
   5  -7   7    4.00    6.10
   5  -7   7    1.80    6.70
  -5  -7  -8  110.29   14.90
   5  -7   8   95.79   11.80
   5  -7   8   78.39   14.80
   5   7   9  152.48   13.30
   5  -7   9  103.79   11.90
   5   8 -10  170.68   20.50
  -5  -8  10  129.79   20.10
   5   8  -9   10.50    9.20
  -5  -8   9    0.70    8.20
   5   8  -8  143.09   18.80
  -5  -8   8  144.29   19.30
   5   8  -7   17.90    9.60
  -5   8   7   45.40   11.80
  -5  -8   7   21.80   10.20
   5   8  -6   30.30   10.60
  -5  -8   6   17.40    7.90
  -5   8   5   36.40   12.20
   5   8  -5   11.60    8.00
  -5  -8   5   12.80    7.50
   5   8  -4   27.70   10.30
  -5   8   4   39.70   10.40
  -5  -8   4   26.80    9.40
   5  -8  -4   32.70    7.30
   5   8  -3   49.00   10.20
   5   8  -3   26.20    9.40
  -5   8   3   40.50    7.50
  -5  -8   3   25.90    9.60
   5  -8  -3   25.20    7.80
  -5   8   2  495.35   22.90
   5   8  -2  500.35   28.30
  -5   8   2  518.15   28.40
   5   8  -2  478.65   25.60
  -5   8   2  505.75   18.80
   5  -8  -2  460.55   26.10
  -5  -8   2  459.45   28.30
  -5   8   1  458.45   30.90
   5   8  -1  369.76   24.30
  -5   8   1  390.96   18.30
   5   8  -1  430.56   20.70
  -5   8   1  364.76   22.40
  -5  -8   1  369.16   24.70
   5   8   0   68.49   12.60
  -5  -8   0   51.09   11.90
  -5  -8   0   52.09   10.80
   5  -8   0   66.99   12.80
   5   8   1  566.14   21.10
  -5   8  -1  595.94   25.70
   5   8   1  522.65   27.90
   5  -8   1  568.24   30.80
  -5  -8  -1  599.04   30.80
  -5  -8  -1  593.44   30.90
  -5  -8  -1  530.15   28.50
   5   8   2   63.89   11.00
  -5  -8  -2   77.09   14.00
  -5  -8  -2   78.29   11.70
   5  -8   2   80.79   14.50
   5   8   3  158.18   11.80
   5   8   3  120.09   13.20
   5   8   3  124.79   14.50
   5  -8   3  125.49   17.30
  -5  -8  -3  181.88   14.50
  -5  -8  -3  172.68   16.50
   5   8   4  143.89   13.90
   5  -8   4  139.99   18.10
  -5  -8  -4  141.69   14.40
  -5  -8  -4  144.69   16.90
   5  -8   4  137.49   18.00
   5   8   5   69.39   14.60
   5   8   5   76.49   11.20
   5  -8   5   82.09   16.30
   5  -8   5  106.99   17.90
   5   8   6   91.29   13.30
   5  -8   6  104.39   16.90
   5  -8   6   58.19   13.30
   5   8   7  176.38   14.00
  -5  -8  -7  210.08   16.40
  -5  -8  -7  190.78   11.70
   5   8   8  286.27   22.30
  -5  -8  -8  322.47   20.70
   5  -8   8  222.18   21.60
   5  -8   8  218.28   24.60
   5   9  -9   83.29   19.30
  -5  -9   9   74.39   18.30
   5   9  -7  157.68   20.60
  -5  -9   7  148.09   19.90
   5   9  -5   32.90   10.70
  -5  -9   5   31.80   11.50
   5   9  -4   28.60   10.40
  -5  -9   4   31.70   11.70
   5  -9  -4   24.30    6.90
   5   9  -3  201.88   18.80
  -5   9   3  193.18   15.00
   5  -9  -3  188.98   14.90
  -5  -9   3  180.28   20.30
  -5   9   2  141.99   14.20
   5   9  -2  119.49   16.20
   5  -9  -2  150.88   14.00
  -5  -9   2  155.78   17.80
  -5   9   1  129.89   15.40
   5   9  -1  130.29   16.10
   5  -9  -1  135.99   15.70
  -5  -9   1  124.49   16.40
   5   9   0  193.08   17.80
  -5   9   0  189.78   18.90
  -5  -9   0  177.78   18.70
   5  -9   0  195.18   18.10
  -5   9  -1  193.48   18.00
   5   9   1  158.68   15.90
  -5  -9  -1  167.38   16.80
   5  -9   1  191.28   18.40
  -5   9  -2  534.35   28.70
  -5   9  -2  506.75   28.90
   5   9   2  443.66   25.50
   5   9   2  422.36   24.10
  -5  -9  -2  449.95   27.10
   5  -9   2  449.95   29.00
  -5  -9  -2  429.06   27.10
   5   9   3   97.49   14.40
   5   9   3  103.29   13.30
   5  -9   3  131.39   16.90
  -5  -9  -3  113.79   15.40
   5   9   4  226.48   17.70
   5  -9   4  213.98   28.60
   5  -9   4  237.98   23.50
  -5  -9  -4  240.68   19.10
   5   9   5   29.60    7.20
   5  -9   5   18.40    8.70
  -5  -9  -5   19.10    8.20
   5  -9   5   30.00    9.90
   5   9   6   15.20    8.30
   5  -9   6    5.60    9.50
   5  -9   6    9.90   10.70
  -5 -10   7  108.39   18.30
   5  10  -6   26.50   10.90
   5  10  -5  318.67   25.10
  -5 -10   5  348.27   28.90
   5  10  -4  109.79   14.10
  -5 -10   4   82.39   16.40
  -5  10   3   33.90   10.10
   5  10  -3   53.39   13.40
  -5 -10   3   37.00   10.90
   5  10  -2  391.36   27.00
  -5  10   2  420.36   15.40
  -5  10   2  377.16   21.50
   5 -10  -2  352.36   22.40
  -5 -10   2  388.06   28.00
  -5  10   1  190.68   18.30
   5  10  -1  216.88   20.60
   5 -10  -1  243.18   17.90
  -5 -10   1  208.78   24.60
   5  10   0  202.28    9.40
  -5  10   0  191.48   14.10
   5 -10   0  158.28   14.00
   5  10   1    6.20    8.80
  -5  10  -1   16.30    7.30
   5  10   1   30.00   11.10
   5 -10   1   16.60    6.80
  -5 -10  -1   12.70    7.40
   5  10   2  184.78   18.80
   5  10   2  221.68   17.30
  -5 -10  -2  240.38   20.00
   5 -10   2  181.88   20.70
   5  10   3   42.60    8.20
   5  10   3   27.90    9.30
  -5 -10  -3   25.60    7.80
   5 -10   3   17.00    9.60
  -5  10  -4  344.27   25.30
   5  10   4  306.47   19.30
   5 -10   4  390.46   27.90
  -5 -10  -4  354.66   21.80
  -5  11   3  215.28   15.20
   5  11  -3  201.28   21.40
  -5 -11   3  272.67   24.70
  -5  11   2  411.26   21.50
   5  11  -2  448.96   27.90
  -5 -11   2  346.87   30.60
   5 -11  -2  464.35   21.60
   5  11  -1  307.17   24.70
   5 -11  -1  332.87   20.00
  -5 -11   1  322.17   26.50
  -5  11   0  354.26   20.90
   5  11   0  289.37   25.60
   5 -11   0  307.97   21.30
  -5 -11   0  305.07   23.70
  -5 -11  -1   60.29   13.70
   6   0 -14 1066.79   40.50
   6   0 -14  932.11   40.60
   6   0 -13   -1.70    6.30
   6   0 -12  188.68   17.90
   6   0 -12  173.88   17.30
   6   0 -12  241.98   22.20
   6   0 -11   -2.00    7.30
   6   0 -11    5.00    6.80
   6   0 -11   -1.90    5.10
   6   0 -11   -1.60    5.50
   6   0 -10 1025.50   37.30
   6   0 -10  985.10   41.10
   6   0 -10  965.30   41.60
   6   0 -10  986.40   39.30
   6   0 -10 1017.90   47.20
   6   0  -9    3.10    5.90
   6   0  -9    2.20    4.40
   6   0  -9    0.40    4.60
   6   0  -9    1.00    5.10
   6   0  -9   -6.20    4.60
   6   0  -8  573.74   26.50
   6   0  -8  557.64   26.10
   6   0  -8  557.04   27.70
   6   0  -8  587.04   24.40
   6   0  -8  552.44   27.40
   6   0  -7   -3.70    3.50
   6   0  -7    3.50    3.80
   6   0  -7   -5.80    3.80
   6   0  -7   -3.70    3.10
   6   0  -7    1.10    4.00
  -6   0   6  150.88   10.80
   6   0  -6  163.68   13.00
   6   0  -6  156.88   12.60
   6   0  -6  152.38   12.80
   6   0  -6  156.68   11.00
   6   0  -6  153.88   11.50
   6   0  -5    1.10    2.90
   6   0  -5    2.20    3.10
  -6   0   5    5.50    3.70
   6   0  -5   -1.10    3.00
  -6   0   5   -1.60    2.90
   6   0  -4 2328.77   60.89
   6   0  -4 2340.87   64.09
  -6   0   4 2151.58   74.99
  -6   0   4 2325.47   60.29
  -6   0   3    0.30    3.20
   6   0  -3    0.80    3.10
  -6   0   3    0.60    2.40
   6   0  -3   -0.10    2.00
   6   0  -3   -1.10    2.20
  -6   0   2 4841.52  117.69
  -6   0   2 4676.03  115.69
   6   0  -2 4895.41  118.39
   6   0  -2 4915.31  116.69
   6   0  -2 4731.53  115.79
   6   0  -1    2.90    3.30
  -6   0   1    2.00    2.50
   6   0  -1    1.60    2.60
  -6   0   0 8419.16  198.98
  -6   0   0 8328.77  198.28
   6   0   0 8695.13  199.88
   6   0   0 8707.83  198.88
   6   0   1    3.20    3.40
  -6   0  -1    1.30    2.70
  -6   0  -1    0.50    2.70
   6   0   1   -0.90    2.90
   6   0   1    0.40    3.00
   6   0   2 5218.08  132.29
  -6   0  -2 5290.77  130.59
   6   0   2 5352.36  127.79
  -6   0  -2 5281.17  127.49
   6   0   3   -2.80    2.80
  -6   0  -3    0.60    3.40
   6   0   3    1.50    3.50
  -6   0  -3    3.30    3.80
   6   0   4 1129.79   46.20
   6   0   4 1124.99   35.70
   6   0   4 1103.69   42.60
  -6   0  -4 1096.59   35.40
  -6   0  -4 1139.09   40.10
   6   0   5   -0.70    3.60
   6   0   5    2.40    4.70
  -6   0  -5    0.40    4.00
   6   0   6  312.57   20.70
  -6   0  -6  334.17   21.10
  -6   0  -6  327.87   20.70
   6   0   6  316.27   23.00
   6   0   7    0.20    5.70
   6   0   7    2.00    4.70
  -6   0  -7   -1.10    5.50
  -6   0  -8  492.15   21.30
   6   0   8  441.46   30.40
   6   0   8  443.66   27.30
  -6   0  -8  424.06   26.00
   6   0   9   -5.10    5.90
   6   0  10   26.70   12.20
   6   0  10   39.10   10.60
   6   0  11   -2.60    7.60
   6   0  12  191.08   21.40
   6   0  12  204.88   18.20
   6   1 -15  286.37   20.00
   6   1 -15  275.07   20.60
   6  -1 -15  342.27   17.10
   6   1 -14   70.39   13.60
   6   1 -14  107.09   12.20
   6  -1 -14  100.99   12.60
   6   1 -13  124.69   16.60
   6   1 -13  137.29   14.50
   6  -1 -13  105.89   14.20
   6  -1 -13  109.59   15.90
   6   1 -12  169.18   16.90
   6   1 -12  165.58   17.50
   6  -1 -12  160.38   16.80
   6  -1 -12  228.08   20.70
   6  -1 -12  169.88   15.60
   6   1 -11   98.29   13.00
   6   1 -11   77.49   13.50
   6  -1 -11   89.79   11.60
   6  -1 -11  113.79   16.10
   6  -1 -11   80.79   12.30
   6   1 -10  231.88   18.40
   6   1 -10  217.08   19.80
   6   1 -10  228.48   19.00
   6   1 -10  259.47   21.00
   6   1 -10  224.68   17.50
   6  -1 -10  239.18   19.50
   6  -1 -10  224.08   17.10
  -6  -1  10  245.98   20.30
   6  -1 -10  223.08   14.70
   6  -1 -10  210.38   17.80
   6  -1 -10  254.97   19.60
   6   1  -9  281.57   19.70
   6   1  -9  288.07   21.00
   6   1  -9  293.97   20.60
   6   1  -9  303.27   21.30
   6   1  -9  294.17   18.80
   6  -1  -9  284.17   18.60
   6  -1  -9  297.67   20.40
   6  -1  -9  300.87   19.90
   6  -1  -9  273.07   18.20
  -6  -1   9  307.27   21.30
   6  -1  -9  277.47   15.60
   6   1  -8  327.67   20.90
   6   1  -8  317.97   20.80
   6   1  -8  336.47   21.60
   6   1  -8  332.17   20.50
   6  -1  -8  360.36   28.80
   6  -1  -8  347.77   21.10
   6  -1  -8  341.27   20.90
  -6  -1   8  353.86   21.90
   6  -1  -8  341.87   18.70
   6  -1  -8  342.27   16.40
   6   1  -7  186.58   15.00
   6   1  -7  202.18   14.40
   6   1  -7  209.08   16.10
   6   1  -7  184.48   14.60
   6   1  -7  189.68   15.00
   6  -1  -7  184.18   14.90
  -6  -1   7  193.98   15.50
   6  -1  -7  192.08   12.90
   6  -1  -7  196.68   11.70
   6  -1  -7  191.88   14.20
   6  -1  -7  185.98   14.60
  -6   1   6  593.04   21.50
   6   1  -6  643.54   25.30
   6   1  -6  599.04   26.50
  -6   1   6  608.84   25.40
   6   1  -6  604.14   27.00
   6   1  -6  597.94   26.40
   6  -1  -6  602.24   25.60
   6  -1  -6  613.94   22.00
   6  -1  -6  576.84   22.30
   6  -1  -6  591.94   26.50
  -6  -1   6  585.44   24.20
  -6  -1   6  626.84   32.40
   6   1  -5  865.01   32.30
  -6   1   5  905.61   27.90
   6   1  -5  933.21   31.60
   6   1  -5  877.21   32.60
  -6   1   5  875.31   31.50
   6  -1  -5  923.61   28.30
   6  -1  -5  858.51   27.80
  -6  -1   5  873.11   33.10
  -6  -1   5  862.41   39.00
   6  -1  -5  888.81   32.90
   6  -1  -5  882.81   32.00
   6   1  -4   87.49    8.60
   6   1  -4   80.89    9.00
   6   1  -4   85.69   10.60
  -6   1   4   94.79    7.60
  -6  -1   4  100.59    9.40
  -6  -1   4   87.29    8.50
   6  -1  -4   77.19    8.70
   6  -1  -4   99.59    9.50
   6  -1  -4   92.89    7.60
  -6   1   3 1665.83   45.00
   6   1  -3 1656.23   47.70
   6   1  -3 1602.04   47.20
  -6   1   3 1641.54   48.70
   6   1  -3 1670.63   49.00
  -6  -1   3 1626.14   47.70
  -6  -1   3 1624.24   49.90
  -6  -1   3 1612.04   47.00
   6  -1  -3 1690.63   49.20
   6   1  -2  167.18   11.60
  -6   1   2  168.58   10.30
   6   1  -2  167.48   10.30
  -6   1   2  161.18   11.30
   6  -1  -2  180.58   10.70
   6  -1  -2  171.28   11.90
  -6  -1   2  166.68   11.00
  -6  -1   2  168.18   11.40
  -6   1   1  222.28   12.20
   6   1  -1  231.48   11.20
  -6   1   1  219.28   13.10
   6   1  -1  207.68   12.90
   6   1  -1  220.28   12.90
  -6  -1   1  225.88   12.80
   6  -1  -1  234.08   13.70
  -6  -1   1  242.48   13.30
   6  -1  -1  215.98   12.60
  -6   1   0 1159.18   37.70
  -6   1   0 1176.18   37.40
   6   1   0 1208.98   33.00
   6   1   0 1237.28   37.20
  -6  -1   0 1204.28   36.50
   6  -1   0 1223.28   36.90
   6  -1   0 1197.88   38.00
  -6  -1   0 1189.68   37.80
   6  -1   0 1284.87   39.00
   6   1   1  838.22   27.80
  -6   1  -1  859.51   29.70
   6   1   1  864.81   30.60
   6   1   1  808.32   22.90
  -6   1  -1  816.92   30.00
  -6  -1  -1  820.32   27.60
   6  -1   1  833.72   29.80
  -6  -1  -1  848.62   30.10
   6   1   2  742.93   25.30
  -6   1  -2  702.03   27.90
  -6   1  -2  710.33   27.40
   6   1   2  758.62   30.50
   6   1   2  730.63   28.30
   6  -1   2  724.53   28.90
  -6  -1  -2  707.33   24.70
   6  -1   2  733.43   27.40
  -6  -1  -2  729.73   27.80
   6   1   3   90.19    8.00
   6   1   3   94.09   16.10
  -6   1  -3   66.19    9.20
  -6   1  -3   78.09   10.90
  -6  -1  -3   85.09    9.60
   6  -1   3   79.79    8.90
  -6  -1  -3   74.49    7.30
   6  -1   3   70.79    9.90
   6   1   4  632.34   22.60
  -6   1  -4  633.34   29.50
  -6   1  -4  648.74   25.80
  -6   1  -4  590.14   27.30
   6   1   4  625.14   30.20
  -6  -1  -4  618.64   22.20
   6  -1   4  634.24   29.90
   6  -1   4  640.54   25.80
   6  -1   4  656.43   29.40
   6  -1   4  612.04   21.10
  -6   1  -5  206.68   14.00
   6   1   5  209.58   18.20
  -6   1  -5  221.48   16.50
   6   1   5  216.18   19.00
  -6   1  -5  230.38   18.40
  -6  -1  -5  204.68   12.10
   6  -1   5  222.18   11.50
  -6  -1  -5  206.18   15.60
   6  -1   5  220.48   18.20
  -6   1  -6 1166.58   39.60
  -6   1  -6 1112.29   43.30
  -6   1  -6 1151.38   47.70
   6   1   6 1125.79   41.80
   6   1   6 1129.89   47.50
   6  -1   6 1179.18   45.50
   6  -1   6 1138.99   34.00
  -6  -1  -6 1143.89   42.30
   6  -1   6 1152.28   47.50
  -6  -1  -6 1169.08   34.80
  -6   1  -7  766.42   31.20
  -6   1  -7  775.12   35.30
   6   1   7  781.72   34.50
  -6   1  -7  812.32   39.20
   6   1   7  798.12   40.00
   6  -1   7  795.82   37.30
   6  -1   7  797.12   26.50
  -6  -1  -7  759.92   33.90
   6   1   8  241.38   19.70
   6   1   8  209.48   21.20
   6  -1   8  243.28   22.70
   6  -1   8  231.98   12.80
  -6  -1  -8  205.58   18.30
   6   1   9  150.38   16.10
   6   1   9  129.49   17.60
   6  -1   9  143.89   11.30
   6  -1   9  156.48   17.50
   6  -1   9  153.08   20.10
   6   1  10   79.49   15.90
   6   1  10   67.89   11.20
   6  -1  10   40.10   11.80
   6  -1  10   58.69    9.40
   6   1  11  196.38   23.80
   6   1  11  231.68   18.90
   6  -1  11  190.78   22.50
   6  -1  11  167.28   20.10
   6   1  12  405.46   28.40
   6   1  12  493.25   35.20
   6  -1  12  392.46   30.30
   6  -1  12  478.35   35.20
   6   2 -14   92.39   14.50
   6  -2 -14   78.79   12.60
   6   2 -13   68.99   13.80
   6   2 -13   49.00   13.00
   6  -2 -13   91.69   10.40
   6  -2 -13   80.59   12.50
  -6  -2  13   69.99   16.10
   6   2 -12  119.89   15.20
   6   2 -12  129.69   15.90
  -6  -2  12  109.89   16.10
   6  -2 -12  122.59   11.10
   6  -2 -12  100.19   13.40
   6   2 -11  275.77   21.30
   6   2 -11  267.27   20.60
   6  -2 -11  252.67   25.10
  -6  -2  11  247.68   22.00
   6  -2 -11  244.88   17.90
   6  -2 -11  218.48   13.70
   6   2 -10  552.34   30.60
   6   2 -10  524.65   29.30
   6   2 -10  562.34   29.20
   6   2 -10  500.35   29.80
   6   2 -10  618.54   30.80
   6  -2 -10  540.95   27.60
   6  -2 -10  528.85   25.90
   6  -2 -10  550.14   29.10
   6  -2 -10  506.65   24.90
  -6  -2  10  515.65   30.30
   6  -2 -10  518.45   20.60
   6   2  -9  439.06   27.40
   6   2  -9  450.65   28.70
   6   2  -9  466.75   27.40
   6   2  -9  451.85   25.30
   6   2  -9  432.86   25.50
   6  -2  -9  453.55   23.90
   6  -2  -9  461.65   18.20
   6  -2  -9  443.36   21.50
  -6  -2   9  479.45   27.60
   6  -2  -9  464.35   24.80
   6  -2  -9  450.55   26.10
   6   2  -8  233.58   18.90
   6   2  -8  267.87   18.20
   6   2  -8  255.57   19.70
   6   2  -8  238.38   18.70
   6   2  -8  245.78   18.40
   6  -2  -8  247.58   17.60
   6  -2  -8  251.97   16.70
   6  -2  -8  248.88   14.70
   6  -2  -8  251.87   12.30
  -6  -2   8  244.48   18.80
   6  -2  -8  239.78   18.00
   6   2  -7  121.89   13.20
   6   2  -7  127.19   12.60
   6   2  -7  129.99   13.30
  -6   2   7  105.69   11.80
   6   2  -7  126.99   12.90
   6   2  -7  124.09   13.20
   6  -2  -7  111.69    9.40
   6  -2  -7  120.09   11.90
  -6  -2   7  128.29   13.30
   6  -2  -7  126.09    8.50
   6  -2  -7  139.79   13.20
   6  -2  -7  125.39   12.00
   6   2  -6  694.03   29.60
   6   2  -6  675.23   30.20
   6   2  -6  735.93   30.40
  -6   2   6  699.53   22.10
  -6   2   6  669.83   27.30
   6   2  -6  679.03   28.80
   6  -2  -6  697.43   29.80
   6  -2  -6  689.13   27.80
  -6  -2   6  665.33   29.60
   6  -2  -6  690.43   22.70
   6  -2  -6  687.13   22.10
  -6  -2   6  690.23   28.40
   6   2  -5  255.27   16.70
   6   2  -5  265.67   16.20
  -6   2   5  255.07   11.40
   6   2  -5  261.97   16.30
   6   2  -5  279.07   17.20
  -6   2   5  268.67   15.50
   6  -2  -5  261.77   11.90
  -6  -2   5  256.97   15.40
   6  -2  -5  280.97   16.40
  -6  -2   5  287.77   17.20
   6  -2  -5  251.47   10.80
  -6   2   4 1185.28   33.60
   6   2  -4 1173.08   39.00
   6   2  -4 1189.68   39.50
   6   2  -4 1186.58   40.40
  -6   2   4 1205.68   39.30
   6  -2  -4 1238.68   34.40
   6  -2  -4 1235.18   40.00
   6  -2  -4 1247.68   31.20
  -6  -2   4 1150.38   38.60
  -6  -2   4 1236.48   40.30
   6   2  -3 5947.71  144.19
  -6   2   3 5860.21  139.89
   6   2  -3 5927.11  145.89
  -6   2   3 6179.48  149.19
   6   2  -3 6088.19  146.79
   6  -2  -3 6062.29  140.89
  -6  -2   3 6078.79  145.39
   6  -2  -3 6099.99  146.39
  -6  -2   3 5887.81  144.79
   6   2  -2 1572.34   47.20
   6   2  -2 1552.84   47.10
   6   2  -2 1582.04   45.10
  -6   2   2 1555.74   43.80
  -6   2   2 1631.14   53.99
  -6  -2   2 1664.73   49.30
   6  -2  -2 1607.74   40.40
   6  -2  -2 1595.64   48.50
  -6  -2   2 1522.05   45.20
   6   2  -1 1771.62   48.60
  -6   2   1 1773.32   55.39
   6   2  -1 1829.02   52.79
  -6   2   1 1841.52   50.79
   6   2  -1 1829.42   51.79
  -6  -2   1 1806.62   49.10
   6  -2  -1 1844.62   47.60
   6  -2  -1 1803.32   53.59
  -6  -2   1 1899.31   54.69
   6   2   0  135.29   11.00
   6   2   0  125.99    7.70
   6   2   0  129.79    9.90
  -6   2   0  138.19   10.30
  -6   2   0  127.99   10.60
  -6  -2   0  123.39   10.40
  -6  -2   0  128.49    7.90
   6  -2   0  125.69    9.00
   6  -2   0  135.89   11.60
  -6  -2   0  133.59    9.60
  -6   2  -1 1380.16   43.40
   6   2   1 1364.76   43.20
  -6   2  -1 1371.06   43.00
   6   2   1 1382.56   40.00
   6   2   1 1315.97   34.80
  -6  -2  -1 1381.56   43.00
  -6  -2  -1 1399.66   39.80
   6  -2   1 1362.46   42.00
   6  -2   1 1393.36   44.00
   6   2   2  255.97   12.80
  -6   2  -2  264.37   21.20
   6   2   2  253.57   15.50
  -6   2  -2  252.97   15.70
  -6   2  -2  250.57   15.60
   6  -2   2  277.97   16.50
   6  -2   2  247.88   15.50
  -6  -2  -2  248.08   12.70
  -6  -2  -2  245.28   15.00
  -6   2  -3  290.77   18.00
   6   2   3  292.07   19.20
   6   2   3  293.97   13.30
  -6   2  -3  299.47   17.10
  -6   2  -3  294.07   17.60
   6   2   3  295.27   17.30
   6  -2   3  290.77   18.90
   6  -2   3  313.97   18.10
  -6  -2  -3  282.97   16.80
   6  -2   3  310.07   18.80
  -6  -2  -3  278.17   13.20
  -6   2  -4   19.80    7.50
   6   2   4   17.30    6.60
  -6   2  -4   21.90    6.30
   6  -2   4   19.60    6.60
   6  -2   4   19.40    7.60
  -6  -2  -4   28.00    7.40
   6   2   5  332.57   18.70
  -6   2  -5  320.67   21.80
  -6   2  -5  309.07   18.90
   6   2   5  326.07   22.80
  -6  -2  -5  328.47   19.30
   6  -2   5  342.67   22.60
   6  -2   5  334.37   16.50
   6  -2   5  346.97   22.30
   6   2   6  228.08   20.20
  -6   2  -6  226.78   17.10
  -6   2  -6  256.47   26.50
   6   2   6  233.88   16.30
   6  -2   6  234.68   14.10
  -6  -2  -6  245.08   17.10
   6  -2   6  209.08   18.60
   6   2   7  236.48   17.60
   6   2   7  273.27   23.00
  -6   2  -7  309.57   23.20
  -6   2  -7  250.67   19.10
   6  -2   7  264.97   15.60
   6  -2   7  247.68   22.20
  -6  -2  -7  276.47   19.40
  -6   2  -8   -0.30    6.80
   6   2   8   14.80    9.10
   6   2   8    2.20    6.20
  -6  -2  -8   -2.20    6.00
   6  -2   8   -7.20    5.60
   6  -2   8    7.40    7.90
   6  -2   8    1.70    4.20
   6   2   9   24.50    8.90
   6   2   9   37.40   11.90
   6  -2   9   34.40   12.70
   6  -2   9   39.40    9.50
   6  -2   9   46.10   13.30
  -6  -2  -9   39.10   10.70
  -6   2 -10   25.80   10.30
   6   2  10   24.50   11.10
   6  -2  10   17.30    5.80
   6  -2  10    5.60    8.60
   6  -2  10   20.00   10.50
   6   2  11  305.97   27.70
   6   2  11  310.17   23.20
  -6   2 -11  336.57   24.40
   6  -2  11  295.07   28.90
   6  -2  11  299.57   18.00
   6  -2  11  284.07   26.80
   6   3 -14  121.39   16.70
   6   3 -14  136.69   16.60
  -6  -3  14  123.09   14.20
   6   3 -13   66.29   15.10
   6   3 -13   72.39   17.00
  -6  -3  13   45.10   13.40
   6  -3 -13   96.19   11.80
   6   3 -12   21.30   10.20
   6   3 -12   38.50    9.20
  -6  -3  12   22.80   11.60
   6  -3 -12   14.60   13.40
   6  -3 -12   18.80    8.00
   6   3 -11  136.59   16.40
   6   3 -11  126.39   16.50
  -6  -3  11  106.99   15.80
   6  -3 -11   96.09   13.40
   6   3 -10  184.98   21.30
   6   3 -10  148.49   16.60
   6   3 -10  135.99   16.40
   6  -3 -10  125.09   15.90
   6  -3 -10  146.99   14.70
   6  -3 -10  186.08   17.40
  -6  -3  10  166.18   17.80
   6   3  -9  234.78   19.40
   6   3  -9  225.98   19.50
   6   3  -9  163.08   19.60
   6   3  -9  218.08   18.60
   6   3  -9  223.58   20.90
  -6  -3   9  219.28   19.40
   6  -3  -9  235.28   23.40
   6  -3  -9  190.68   22.90
   6  -3  -9  195.78   15.90
   6  -3  -9  208.28   14.70
   6   3  -8  379.66   24.90
   6   3  -8  407.06   28.50
   6   3  -8  321.97   28.90
   6   3  -8  404.16   24.50
  -6   3   8  383.16   21.40
   6   3  -8  375.96   23.10
   6  -3  -8  382.06   20.90
  -6  -3   8  407.56   24.90
   6  -3  -8  364.36   17.20
   6  -3  -8  378.66   22.70
   6  -3  -8  397.16   21.00
   6   3  -7 1020.70   40.60
   6   3  -7 1052.19   41.40
  -6   3   7 1028.10   36.70
   6   3  -7  991.60   41.30
   6   3  -7 1111.79   40.80
   6  -3  -7 1051.59   37.10
   6  -3  -7 1007.70   30.50
  -6  -3   7 1042.10   41.60
   6   3  -6   15.60    6.80
  -6   3   6   30.90    8.10
   6   3  -6   14.80    6.20
   6   3  -6    8.00    5.30
   6   3  -6   20.60    6.60
   6  -3  -6   22.00    6.30
  -6  -3   6   17.10    5.20
  -6  -3   6   11.40    5.90
   6   3  -5  246.08   16.60
  -6   3   5  242.08   10.20
   6   3  -5  240.68   17.30
   6   3  -5  245.18   16.60
  -6   3   5  242.18   15.30
   6   3  -5  253.57   16.90
  -6  -3   5  252.37   15.90
  -6  -3   5  264.27   17.20
   6  -3  -5  239.98   15.60
   6   3  -4  369.36   19.50
   6   3  -4  389.16   20.60
  -6   3   4  390.56   19.40
  -6   3   4  380.56   14.30
   6   3  -4  384.46   21.30
   6   3  -4  387.76   21.80
   6  -3  -4  386.46   20.00
  -6  -3   4  400.86   20.70
  -6  -3   4  377.96   19.70
   6   3  -3 2916.11   79.69
  -6   3   3 2847.32   78.49
   6   3  -3 2855.91   77.19
   6   3  -3 2926.91   79.59
  -6   3   3 2890.41   71.99
  -6  -3   3 2852.81   78.29
   6  -3  -3 3003.00   79.89
  -6  -3   3 2986.10   78.69
   6   3  -2 2679.73   73.09
   6   3  -2 2643.44   72.39
  -6   3   2 2672.23   67.79
  -6   3   2 2591.94   72.39
   6   3  -2 2662.73   69.79
  -6  -3   2 2677.73   70.49
  -6  -3   2 2510.95   71.29
   6   3  -1  133.79   11.40
   6   3  -1  147.09   11.30
  -6   3   1  148.69   10.30
   6   3  -1  133.19    9.70
  -6   3   1  133.09   11.40
   6  -3  -1  133.59    7.90
   6  -3  -1  139.39   12.20
  -6  -3   1  127.09   11.00
  -6  -3   1  142.19    9.80
   6   3   0  125.99    9.80
  -6   3   0  120.59    8.70
   6   3   0  116.99    8.00
  -6   3   0  109.29   10.70
  -6   3   0  124.59   12.40
   6   3   0  107.49   10.40
   6  -3   0  117.29   11.50
  -6  -3   0  118.59    8.40
  -6  -3   0  129.69   10.90
  -6   3  -1   42.40    9.50
  -6   3  -1   31.70    6.10
  -6   3  -1   38.50    6.80
   6   3   1   31.40    6.30
   6   3   1   33.80    7.20
  -6  -3  -1   37.00    4.60
   6  -3   1   24.40    7.80
  -6  -3  -1   33.30    7.10
   6  -3   1   31.90    6.30
   6   3   2  724.03   24.30
   6   3   2  720.73   28.80
  -6   3  -2  754.42   30.40
  -6   3  -2  741.23   33.00
   6  -3   2  740.23   35.20
   6  -3   2  720.73   31.40
   6  -3   2  684.33   28.40
  -6  -3  -2  683.53   27.90
  -6   3  -3  355.56   19.70
   6   3   3  321.07   13.80
  -6   3  -3  342.57   19.40
   6   3   3  332.17   19.50
   6  -3   3  332.67   20.10
   6  -3   3  313.97   19.30
   6  -3   3  300.67   20.40
  -6  -3  -3  320.87   18.20
  -6   3  -4  114.89   12.70
   6   3   4  126.79   12.10
  -6   3  -4  132.79   13.80
   6   3   4  109.99   13.70
   6  -3   4  112.39   13.90
   6  -3   4  106.29   12.50
  -6  -3  -4  113.19   11.40
  -6   3  -5  137.39   15.80
   6   3   5  138.79   15.80
  -6   3  -5  136.19   13.80
   6   3   5  141.59   11.80
   6  -3   5  133.49   12.00
   6  -3   5  136.79   15.00
  -6  -3  -5  138.29   12.90
   6  -3   5  152.78   16.10
   6   3   6  224.88   20.20
   6   3   6  223.78   15.40
  -6   3  -6  234.58   18.20
  -6   3  -6  263.67   21.00
   6  -3   6  234.68   20.40
  -6  -3  -6  260.27   17.90
   6  -3   6  234.28   20.20
   6   3   7  561.44   33.60
  -6   3  -7  566.04   29.60
  -6   3  -7  638.94   37.50
   6   3   7  592.24   27.10
   6  -3   7  571.24   33.70
   6  -3   7  586.64   26.40
   6  -3   7  599.94   34.20
  -6  -3  -7  556.44   27.60
   6   3   8   86.79   15.60
   6   3   8  102.09   12.00
  -6   3  -8  113.69   13.90
   6  -3   8   94.29   15.10
   6  -3   8  101.79   11.40
  -6  -3  -8   78.49   13.10
   6  -3   8   94.59   15.50
  -6   3  -9   53.49   11.10
   6   3   9   58.69   11.50
   6   3   9   48.10   15.50
   6  -3   9   49.99   17.00
   6  -3   9   51.09   10.50
   6  -3   9   46.70   16.40
  -6  -3  -9   66.39   11.70
   6   3  10  128.69   19.00
   6   3  10  133.29   15.50
   6  -3  10  121.99   17.90
   6  -3  10  131.09   20.20
   6  -3  10  139.89   14.10
   6   3  11  238.78   24.60
   6  -3  11  160.48   21.70
   6  -3  11  155.68   15.60
   6  -3  11  217.88   23.60
   6   4 -14  134.09   20.30
   6   4 -14  207.38   18.50
  -6  -4  14  156.38   19.70
   6   4 -13   20.00    9.90
   6   4 -13   48.50   11.60
  -6  -4  13   24.00   10.50
   6   4 -12  168.78   31.30
   6   4 -12  244.08   30.20
   6  -4 -12  215.78   15.00
  -6  -4  12  174.58   20.70
   6   4 -11  190.28   21.20
   6   4 -11  204.38   20.80
   6  -4 -11  187.08   15.50
  -6  -4  11  203.38   21.00
   6   4 -10  348.67   25.70
   6  -4 -10  358.16   28.30
   6  -4 -10  392.56   21.60
  -6  -4  10  332.57   25.50
   6  -4 -10  357.86   20.50
   6   4  -9  323.67   25.20
   6   4  -9  278.47   21.90
  -6   4   9  335.97   19.40
   6  -4  -9  283.67   20.60
  -6  -4   9  279.27   22.60
   6  -4  -9  273.47   17.70
   6  -4  -9  306.57   19.90
   6   4  -8  291.47   22.30
   6   4  -8  312.07   22.10
   6   4  -8  232.48   21.40
   6  -4  -8  270.77   17.30
  -6  -4   8  270.97   21.20
   6   4  -7 1008.10   42.20
  -6   4   7  985.80   36.30
   6   4  -7 1020.30   41.00
   6   4  -7  959.10   41.40
  -6  -4   7 1013.60   42.20
   6  -4  -7 1000.60   38.30
  -6   4   6  358.26   19.70
   6   4  -6  344.77   22.00
   6   4  -6  351.26   21.90
   6   4  -6  332.67   21.50
  -6  -4   6  357.86   22.30
  -6  -4   6  325.47   21.20
   6  -4  -6  363.06   20.20
  -6   4   5  360.86   19.20
   6   4  -5  374.86   21.60
   6   4  -5  360.56   21.70
   6   4  -5  367.66   21.70
   6  -4  -5  380.06   20.50
  -6  -4   5  372.96   21.00
  -6  -4   5  370.56   21.90
   6   4  -4  650.03   28.00
   6   4  -4  668.03   29.30
  -6   4   4  656.33   27.70
   6   4  -4  645.84   28.90
  -6  -4   4  650.13   28.90
   6  -4  -4  651.03   28.40
  -6  -4   4  631.44   28.30
   6   4  -3  349.07   19.80
  -6   4   3  308.57   17.90
   6   4  -3  307.17   17.60
   6   4  -3  302.57   18.30
  -6   4   3  311.47   13.80
  -6  -4   3  289.17   18.00
  -6  -4   3  312.27   18.10
   6  -4  -3  321.67   19.90
   6   4  -2 1415.86   43.80
  -6   4   2 1409.16   40.70
  -6   4   2 1378.56   45.80
   6   4  -2 1442.66   46.00
   6   4  -2 1380.46   49.00
   6   4  -2 1363.56   44.40
  -6  -4   2 1302.27   44.80
  -6  -4   2 1461.55   44.80
   6   4  -1  877.21   38.40
   6   4  -1  859.41   31.70
  -6   4   1  853.91   33.50
  -6   4   1  880.41   30.20
  -6   4   1  859.11   25.40
  -6  -4   1  859.71   32.20
   6  -4  -1  833.72   34.50
  -6  -4   1  880.71   30.70
  -6   4   0  129.99    9.40
   6   4   0  106.89   12.10
   6   4   0  138.69   11.20
  -6   4   0  123.99   11.70
  -6  -4   0  132.79   11.80
  -6  -4   0  111.29    9.20
   6  -4   0  116.49    8.70
   6  -4   0  114.39   12.30
   6   4   1  159.48   13.70
  -6   4  -1  168.08   14.30
  -6   4  -1  159.18   11.60
   6   4   1  151.28   11.10
   6  -4   1  158.28   14.50
   6  -4   1  170.68   11.90
   6  -4   1  157.98   14.40
  -6  -4  -1  171.78   13.10
  -6  -4  -1  153.08    9.80
  -6   4  -2  263.07   18.20
  -6   4  -2  261.27   16.30
   6   4   2  273.47   13.90
  -6  -4  -2  260.07   11.70
  -6  -4  -2  283.67   17.20
   6  -4   2  280.07   19.20
   6  -4   2  274.67   16.80
   6  -4   2  269.27   19.10
   6   4   3  405.26   21.50
  -6   4  -3  408.86   22.10
  -6   4  -3  409.06   23.40
  -6  -4  -3  427.66   21.40
  -6   4  -4  850.81   36.60
  -6   4  -4  890.91   36.10
   6   4   4  845.42   38.60
   6   4   4  843.52   33.40
   6  -4   4  835.32   36.50
  -6  -4  -4  828.42   33.10
   6  -4   4  856.91   38.50
   6   4   5  492.75   21.50
  -6   4  -5  542.15   29.00
   6   4   5  534.25   30.50
  -6   4  -5  520.75   28.90
   6  -4   5  521.55   29.40
   6  -4   5  504.55   29.90
  -6  -4  -5  534.15   25.10
   6  -4   5  512.35   25.70
  -6   4  -6  709.13   34.20
   6   4   6  650.23   35.30
  -6   4  -6  652.23   32.20
   6   4   6  631.44   25.60
   6  -4   6  619.94   34.20
  -6  -4  -6  620.54   28.70
   6  -4   6  658.63   29.80
   6  -4   6  619.24   35.00
  -6   4  -7   91.19   16.00
   6   4   7  132.59   17.10
   6   4   7  115.39   12.00
   6  -4   7  134.29   17.90
  -6  -4  -7   86.09   11.60
   6  -4   7  120.89   16.80
   6  -4   7  124.19   13.60
   6  -4   8   73.39   14.20
   6  -4   8   93.79   15.50
  -6  -4  -8  116.69   15.10
   6  -4   8   82.09   11.50
   6   4   9   33.50   10.60
   6   4   9   23.00    7.60
   6  -4   9   23.00    7.70
   6  -4   9   26.60   10.50
  -6  -4  -9   12.10    9.00
   6   4  10   95.69   17.00
   6   4  10  145.69   15.10
   6  -4  10  141.89   19.00
   6  -4  10  151.58   17.90
   6  -4  10  110.69   13.30
   6   4  11  210.88   16.40
   6   4  11  190.98   21.60
   6  -4  11  141.99   21.30
   6  -4  11  150.18   22.60
   6  -4  11  199.38   15.30
   6   5 -13  232.78   22.20
   6   5 -13  165.58   20.40
  -6  -5  13  168.78   20.90
   6   5 -11   68.89   18.10
   6  -5 -11   92.49   10.90
   6  -5 -11   90.79   11.00
  -6  -5  11   81.49   14.60
   6   5 -10   94.99   15.60
  -6  -5  10  110.49   16.00
   6  -5 -10   89.39   14.20
   6   5  -9  187.98   19.30
  -6  -5   9  216.28   21.00
   6  -5  -9  237.68   15.20
   6   5  -8  118.79   15.60
   6  -5  -8  121.29   12.60
  -6  -5   8  118.69   15.40
   6  -5  -8  149.99   18.00
   6   5  -7   57.09   11.40
   6   5  -7   80.59   12.90
   6  -5  -7   66.19   10.50
  -6  -5   7   56.69   11.30
  -6   5   6  123.39   13.20
   6   5  -6  128.99   15.80
   6   5  -6  112.19   19.60
   6   5  -6  143.09   15.40
  -6  -5   6  174.28   16.50
   6  -5  -6  164.98   14.30
   6   5  -5  258.87   19.10
  -6   5   5  253.17   17.20
   6   5  -5  216.18   18.00
   6   5  -5  236.48   18.50
   6  -5  -5  236.38   17.20
  -6  -5   5  227.28   18.30
  -6  -5   5  249.48   18.10
   6   5  -4  552.24   27.90
   6   5  -4  597.54   28.40
   6   5  -4  606.74   29.30
  -6   5   4  634.14   27.50
  -6   5   4  610.64   19.50
  -6  -5   4  644.04   29.90
   6  -5  -4  589.34   27.90
  -6  -5   4  579.34   28.40
  -6   5   3  468.45   17.90
  -6   5   3  450.05   23.50
   6   5  -3  464.45   24.60
   6   5  -3  470.15   23.40
  -6  -5   3  447.76   24.00
  -6  -5   3  465.15   24.20
   6  -5  -3  476.45   24.80
   6   5  -2   49.60    9.40
  -6   5   2   60.19    7.60
   6   5  -2   59.59   10.30
  -6   5   2   48.50    9.20
   6  -5  -2   40.00    9.20
  -6  -5   2   52.59    9.80
  -6  -5   2   63.59   13.10
   6   5  -1  374.26   21.00
  -6   5   1  349.37   14.10
  -6   5   1  358.76   20.90
   6   5  -1  353.86   18.70
   6   5  -1  340.47   19.30
   6  -5  -1  346.77   21.70
  -6  -5   1  341.37   18.80
   6   5   0  242.58   15.70
  -6   5   0  244.38   12.90
   6   5   0  259.77   17.30
   6   5   0  230.88   14.70
  -6   5   0  220.38   17.40
  -6  -5   0  235.78   16.70
   6  -5   0  221.98   17.80
  -6  -5   0  242.58   15.00
   6  -5   0  242.48   17.50
  -6   5  -1  863.31   37.20
   6   5   1  934.81   35.50
  -6   5  -1  934.81   32.50
   6   5   1  977.70   33.00
  -6  -5  -1  935.31   31.60
   6  -5   1  957.90   39.60
  -6  -5  -1  893.91   34.80
  -6   5  -2  455.25   25.70
  -6   5  -2  468.75   23.20
   6   5   2  476.85   23.60
   6   5   2  491.35   20.10
  -6  -5  -2  481.35   23.90
  -6  -5  -2  459.75   19.20
   6  -5   2  505.05   27.40
  -6   5  -3  125.89   23.30
  -6   5  -3  188.98   15.20
   6   5   3  153.48   13.40
   6  -5   3  149.69   16.30
  -6  -5  -3  151.58    9.30
   6  -5   3  143.99   14.10
  -6  -5  -3  133.59   13.30
  -6   5  -4  465.55   26.80
   6   5   4  493.25   24.00
  -6   5  -4  454.25   27.10
   6  -5   4  486.15   27.30
  -6  -5  -4  480.15   24.50
   6  -5   4  461.75   28.40
   6   5   5  425.56   22.80
   6   5   5  413.16   17.90
   6   5   5  415.36   27.50
  -6   5  -5  425.56   31.90
  -6  -5  -5  428.76   23.10
   6  -5   5  444.46   25.50
   6  -5   5  435.26   27.20
   6   5   6   68.89   13.80
   6   5   6   76.69    8.70
   6  -5   6   90.39   14.50
   6  -5   6   79.39   12.00
  -6  -5  -6   66.29   11.30
   6   5   7  216.68   21.40
   6   5   7  229.88   13.80
   6  -5   7  254.07   19.00
   6  -5   7  240.48   22.90
  -6  -5  -7  211.38   17.10
   6  -5   7  219.48   23.00
   6   5   8   52.09   14.70
   6  -5   8   45.90   10.60
  -6  -5  -8   46.80   14.60
   6  -5   8   36.10   12.90
   6  -5   8   34.30   12.60
   6   5   9  222.68   14.20
   6   5   9  172.28   21.30
   6  -5   9  204.08   16.50
   6  -5   9  176.28   22.80
   6  -5   9  136.49   21.00
  -6  -5  -9  163.38   16.70
   6   5  10   47.60   12.40
   6  -5  10   82.99   14.90
   6  -5  10   62.59   10.20
   6   6 -12  199.28   22.30
  -6  -6  12  211.18   22.80
   6   6 -11  254.77   22.20
  -6  -6  11  173.48   21.10
   6  -6 -10  175.28   10.50
   6   6  -9  110.29   17.20
  -6  -6   9   84.19   14.70
   6  -6  -9   91.89   12.00
   6   6  -8   59.09   12.60
   6  -6  -8   62.99   10.70
   6  -6  -8   56.89    9.00
  -6  -6   8   60.69   13.90
   6   6  -7  377.46   26.50
   6   6  -7  313.67   23.60
  -6  -6   7  320.27   24.30
   6  -6  -7  312.57   20.30
   6   6  -6  198.28   16.30
   6   6  -6  126.79   15.70
  -6   6   6  164.28   15.10
   6  -6  -6  145.59   14.60
  -6  -6   6  150.28   16.60
  -6   6   5  526.05   27.00
   6   6  -5  575.94   29.60
   6   6  -5  525.85   29.40
  -6  -6   5  556.64   30.50
   6  -6  -5  570.64   28.00
   6   6  -4 1644.34   55.49
  -6   6   4 1576.14   53.39
  -6   6   4 1623.94   42.80
   6   6  -4 1619.14   56.79
  -6  -6   4 1552.74   58.59
   6  -6  -4 1687.13   55.69
  -6  -6   4 1655.03   57.29
   6   6  -3   97.59   12.70
   6   6  -3   68.19   11.30
  -6   6   3   81.89    7.90
  -6   6   3   61.09   11.20
  -6  -6   3   85.09   14.50
   6  -6  -3   78.19   12.10
  -6  -6   3   96.59   12.30
  -6   6   2  138.89   14.00
   6   6  -2  108.69   12.70
   6   6  -2  132.89   14.20
  -6  -6   2  128.19   13.60
   6  -6  -2  116.19   14.10
   6  -6  -2  135.39   13.40
  -6  -6   2  100.89   14.00
   6   6  -1   73.29   11.50
   6   6  -1   81.99   10.00
  -6   6   1   89.09   11.70
  -6  -6   1   76.49   10.80
  -6  -6   1   72.79   12.00
   6  -6  -1   71.39   10.70
   6  -6  -1   66.59   12.20
  -6   6   0   16.20    6.80
   6   6   0   11.40    6.40
  -6   6   0    4.50    4.60
  -6  -6   0   -0.30    5.80
   6  -6   0    5.10    5.80
  -6  -6   0    9.80    5.40
  -6   6  -1  252.37   17.90
  -6   6  -1  272.37   20.60
   6   6   1  289.17   17.20
   6   6   1  301.87   19.30
   6   6   1  291.57   15.50
   6  -6   1  292.67   20.90
  -6  -6  -1  270.97   19.40
  -6  -6  -1  286.67   17.10
   6   6   2  442.06   24.10
  -6   6  -2  463.35   23.80
   6   6   2  478.75   21.60
   6   6   2  506.05   19.50
  -6  -6  -2  501.95   22.00
  -6  -6  -2  458.75   24.90
   6  -6   2  513.05   28.60
  -6   6  -3  145.09   15.00
   6   6   3  134.99   13.50
   6   6   3  131.89   10.00
   6   6   3  138.59   10.70
  -6  -6  -3  121.19   14.30
   6  -6   3  129.09   15.40
  -6  -6  -3  124.29   10.90
   6   6   4  329.57   20.40
  -6   6  -4  353.66   22.40
   6  -6   4  337.67   25.50
  -6  -6  -4  287.57   20.00
  -6  -6  -4  335.27   15.20
   6   6   5   50.69    8.50
   6   6   5   40.30   10.30
   6  -6   5   49.10    9.40
  -6  -6  -5   37.80   11.00
   6   6   6   73.29   16.00
  -6  -6  -6   75.89   13.50
   6  -6   6   83.29   16.00
   6  -6   6   89.49   14.10
   6   6   7  197.48   21.00
   6  -6   7  191.88   18.80
  -6  -6  -7  251.57   18.20
   6  -6   7  216.18   22.90
   6   6   8  143.99   16.20
   6  -6   8  132.29   15.50
   6  -6   8  112.49   18.50
   6   6   9   47.50   12.50
   6  -6   9   44.60   11.80
   6  -6   9   75.59   14.30
   6   7 -11  306.97   23.70
  -6  -7  11  211.98   24.90
   6   7 -10   62.29   16.00
  -6  -7  10   64.29   15.60
   6  -7 -10   94.29   11.80
   6   7  -9   31.80   12.60
   6  -7  -9   35.70    9.30
  -6  -7   9   24.90    9.60
   6   7  -8  154.88   25.90
  -6  -7   8  117.49   26.40
   6  -7  -8  169.28   16.00
   6   7  -7    9.50    7.80
   6  -7  -7   15.30    5.60
  -6  -7   7   19.80    8.10
   6  -7  -7   12.10    7.20
  -6   7   6  132.99   16.70
   6   7  -6  128.19   16.80
  -6  -7   6  133.19   16.60
   6  -7  -6  126.19   14.60
   6   7  -5  526.35   30.40
  -6   7   5  483.85   27.10
   6   7  -5  591.44   29.40
  -6  -7   5  542.75   31.30
   6  -7  -5  528.95   28.40
   6  -7  -5  524.95   23.20
  -6   7   4   27.10    8.40
   6   7  -4   13.60    7.50
  -6   7   4   26.40    4.90
  -6   7   4   21.00    5.50
  -6  -7   4   19.40    7.70
   6  -7  -4   22.20    8.50
  -6   7   3  416.06   18.00
   6   7  -3  390.26   24.90
   6   7  -3  441.86   24.20
  -6   7   3  369.16   35.90
  -6  -7   3  375.76   24.60
   6  -7  -3  407.56   21.70
  -6  -7   3  429.46   26.40
  -6   7   2  158.78   16.30
   6   7  -2  124.59   14.60
   6   7  -2  150.08   13.90
  -6  -7   2  126.99   14.90
  -6  -7   2  140.49   15.90
   6  -7  -2  144.89   14.40
   6   7  -1   97.59   13.40
  -6   7   1  133.69   13.50
  -6   7   1  104.59    8.50
   6   7  -1   96.89   12.00
   6  -7  -1   87.59   12.40
  -6  -7   1   81.29   11.90
  -6  -7   1  113.59   24.40
   6   7   0  166.98   16.00
  -6   7   0  151.88   12.40
  -6   7   0  182.98   17.20
   6   7   0  153.38   13.80
  -6  -7   0  169.08   17.00
   6  -7   0  141.49   15.60
  -6  -7   0  154.08   14.80
   6   7   1  625.34   30.40
   6   7   1  608.34   28.00
   6   7   1  636.34   25.30
  -6   7  -1  672.83   26.60
  -6  -7  -1  656.33   29.20
  -6  -7  -1  704.53   30.20
   6  -7   1  641.34   32.40
   6   7   2  240.88   18.40
   6   7   2  279.47   13.50
   6   7   2  229.18   16.50
  -6  -7  -2  241.78   23.50
  -6  -7  -2  238.68   19.40
   6  -7   2  251.97   20.90
  -6   7  -3   21.60    7.50
   6   7   3    1.50    5.40
  -6  -7  -3    7.80    5.10
  -6  -7  -3   11.60    8.10
   6  -7   3   15.50    8.90
  -6   7  -4   45.10   16.10
   6   7   4   44.70    9.90
   6  -7   4   42.60   12.40
  -6  -7  -4   55.19   11.40
  -6  -7  -4   37.00    8.10
   6   7   5   72.09   14.50
   6   7   5   89.39   12.20
   6  -7   5   97.29   16.40
  -6  -7  -5   73.49    9.20
   6  -7   5   83.09   14.50
  -6  -7  -5   82.79   14.60
   6   7   6   90.89   16.70
   6  -7   6   97.79   15.20
   6   7   7   84.49   15.70
   6  -7   7   57.19   20.10
   6  -7   7   96.99   15.40
   6   7   8   20.90    7.60
   6  -7   8   19.60    9.60
   6  -7   9   74.59   12.50
   6   8 -10  117.79   19.00
  -6  -8  10   92.69   18.20
   6   8  -9  188.78   21.80
  -6  -8   9  177.38   21.50
   6   8  -8   67.19   14.10
   6   8  -7  122.59   17.40
  -6  -8   7  141.39   18.40
   6   8  -5  339.87   25.50
  -6   8   5  304.67   22.10
  -6  -8   5  357.76   26.90
   6  -8  -5  373.16   18.00
  -6   8   4  160.68    9.60
   6   8  -4  135.69   16.90
  -6   8   4  162.68   10.90
   6  -8  -4  180.48   13.50
  -6  -8   4  171.48   19.20
  -6   8   3  246.98   15.70
   6   8  -3  274.57   21.40
   6   8  -3  237.18   20.60
  -6   8   3  278.57   15.10
  -6   8   3  228.98   22.00
  -6  -8   3  238.58   21.70
   6   8  -2  125.99   15.10
  -6   8   2  119.89   19.10
   6   8  -2   81.39   13.90
   6  -8  -2  101.69   12.10
  -6  -8   2  103.99   14.40
  -6   8   1  217.18   12.90
   6   8  -1  234.28   16.80
   6   8  -1  217.88   19.00
  -6  -8   1  203.48   18.90
  -6  -8   1  273.37   19.70
   6  -8  -1  213.48   17.90
   6   8   0  386.26   24.80
   6   8   0  451.75   20.10
  -6  -8   0  390.46   24.90
  -6  -8   0  370.56   25.30
   6  -8   0  394.86   25.20
   6   8   1   38.10   10.20
   6   8   1   40.50   10.90
  -6   8  -1   71.49   11.60
  -6  -8  -1   47.90   10.30
  -6  -8  -1   49.99   11.80
   6  -8   1   57.69   13.30
   6   8   2  123.19   12.90
   6   8   2   82.59   12.50
   6  -8   2  103.39   16.20
  -6  -8  -2  107.49   12.20
  -6  -8  -2  101.59   16.80
   6   8   3  273.67   19.60
   6   8   3  279.07   16.70
   6  -8   3  263.57   23.90
  -6  -8  -3  256.07   18.30
  -6  -8  -3  293.77   21.20
   6   8   4   95.79   13.20
  -6  -8  -4  122.49   12.70
  -6  -8  -4  102.39   17.20
   6  -8   4  140.09   17.70
   6   8   5  146.99   14.80
   6   8   5  129.99   18.00
   6  -8   5  144.39   19.20
   6  -8   5  194.78   21.00
  -6  -8  -6  252.17   12.70
   6  -8   6  176.48   19.30
   6  -8   6  207.68   22.60
   6   8   7  159.28   16.80
   6  -8   7   96.19   19.30
   6   9  -9  362.46   30.90
  -6  -9   9  396.86   33.30
   6   9  -8  393.06   28.70
  -6  -9   8  399.76   31.60
   6   9  -7   61.59   14.20
  -6  -9   7   83.79   15.90
   6   9  -6   83.89   13.80
  -6  -9   6  117.99   15.80
   6   9  -5  113.39   16.30
  -6  -9   5  110.39   17.70
   6   9  -4  310.57   30.50
   6  -9  -4  319.67   17.60
  -6  -9   4  266.37   28.30
  -6   9   3  150.78   10.40
   6  -9  -3  107.19   12.10
  -6   9   2   82.79   13.00
   6   9  -2   87.19   15.10
   6  -9  -2  125.69   13.60
  -6  -9   2  106.89   16.10
  -6   9   1  235.38   11.20
   6   9   0  232.98   20.20
  -6   9   0  230.68   18.80
   6  -9   0  226.38   20.70
  -6  -9   0  219.48   20.50
   6   9   1  122.69   16.70
   6  -9   1  171.18   18.90
  -6  -9  -1  152.78   16.00
   6   9   2    6.50    8.10
  -6   9  -2    9.00   10.30
   6   9   2   17.40    6.90
   6  -9   2   11.30    8.20
  -6  -9  -2    5.40    7.50
  -6   9  -3  305.27   22.70
   6   9   3  260.67   18.20
   6   9   3  214.88   17.90
   6   9   3  276.17   15.70
   6  -9   3  200.58   22.90
  -6  -9  -3  256.67   19.20
   6   9   4  179.88   15.00
  -6  -9  -4  165.38   15.70
   6  -9   4  129.89   19.40
   6  -9   4  141.39   20.00
   6   9   5   18.50    7.10
   6  -9   5   11.70   10.40
   6  -9   5   26.80    9.80
  -6  -9  -6  271.57   16.30
  -6 -10   7   17.30    9.80
   6  10  -6   97.49   15.90
  -6 -10   6   61.59   15.30
   6  10  -5   79.39   12.50
  -6 -10   5   24.30   11.10
   6  10  -4  237.98   19.40
   6 -10  -4  193.28   13.80
  -6 -10   4  154.08   21.80
  -6  10   3  259.47   18.80
  -6  10   3  266.97   15.90
   6  10  -3  294.57   23.10
  -6 -10   3  258.47   25.60
   6  10  -2   82.69   13.50
  -6  10   2   57.29   12.10
   6 -10  -2   83.19   13.30
  -6  10   1  155.78   15.30
   6  10  -1  163.18   16.20
   6 -10  -1  139.29   14.20
   6  10   0  216.68   17.50
  -6  10   0  230.08   17.90
   6 -10   0  205.88   17.60
  -6 -10   0  231.28   19.60
  -6  10  -1  267.37   24.50
   6  10   1  328.97   24.40
  -6 -10  -1  386.96   25.00
   6 -10   1  322.07   25.80
  -6  10  -2  174.58   24.00
   6  10   2  139.79   14.90
   6  10   2  139.89   17.00
  -6  10  -2  197.88   21.30
  -6 -10  -2  157.38   15.30
   6  10   3   84.19   12.30
   6  10   3   92.29   15.80
   6 -10   3   86.59   16.40
   6  10   4  282.27   18.20
   6 -10   4  247.68   23.30
   7   0 -14  180.78   16.70
   7   0 -14  184.68   15.00
   7   0 -13   10.30    6.40
   7   0 -13   -1.40    6.90
   7   0 -12 1136.49   42.90
   7   0 -12 1119.89   45.60
   7   0 -12 1110.39   47.30
   7   0 -11   -5.10    5.50
   7   0 -11   -4.00    5.40
   7   0 -10  567.34   29.60
   7   0 -10  482.45   27.80
   7   0 -10  534.65   25.40
   7   0 -10  526.75   28.20
   7   0 -10  585.64   30.60
   7   0  -9   -4.00    5.50
   7   0  -9    2.20    6.20
   7   0  -9   -2.20    5.20
   7   0  -9    3.20    5.40
   7   0  -8  629.04   30.50
   7   0  -8  633.34   29.60
   7   0  -8  656.73   28.60
   7   0  -8  653.23   26.70
   7   0  -8  652.23   30.80
  -7   0   7   -0.30    3.80
   7   0  -7   -3.40    3.50
   7   0  -7    6.30    3.70
   7   0  -7    4.10    4.60
   7   0  -7   -5.30    3.60
  -7   0   6  848.52   33.80
   7   0  -6  821.82   29.70
   7   0  -6  781.02   32.30
   7   0  -5   -1.30    3.80
   7   0  -5   -2.40    2.50
  -7   0   5   -3.00    3.10
   7   0  -5    0.80    3.20
   7   0  -4  181.48   12.80
   7   0  -4  205.58   14.30
   7   0  -4  193.88   12.50
  -7   0   4  176.98   13.20
  -7   0   4  187.48   11.80
  -7   0   3   -3.40    2.70
   7   0  -3    3.30    3.60
   7   0  -3    1.40    3.30
   7   0  -3   -1.10    2.40
  -7   0   3    1.30    3.90
   7   0  -2 1288.67   41.10
  -7   0   2 1181.88   40.00
   7   0  -2 1224.38   38.00
  -7   0   2 1262.17   40.40
   7   0  -1   -0.70    3.20
   7   0  -1    1.70    2.50
  -7   0   1    3.60    3.20
   7   0  -1    0.60    3.10
  -7   0   1   -2.00    5.90
   7   0   0 1247.58   40.10
  -7   0   0 1268.97   40.60
  -7   0   0 1273.17   45.90
   7   0   0 1279.87   41.30
  -7   0  -1    3.80    3.30
   7   0   1    4.10    4.30
   7   0   1    3.30    3.80
   7   0   1    8.90    4.30
  -7   0  -1    2.70    3.60
   7   0   2 3609.04   92.99
  -7   0  -2 3586.94   95.89
   7   0   2 3614.04   97.79
  -7   0  -2 3686.93   98.49
   7   0   3    2.70    3.80
   7   0   3    0.40    3.70
  -7   0  -3    1.90    6.20
  -7   0  -3    2.60    4.10
  -7   0  -4  344.67   18.90
  -7   0  -4  308.97   19.40
   7   0   4  340.07   22.40
   7   0   4  345.47   17.70
  -7   0  -5    2.40    5.20
   7   0   5   -3.00    4.60
  -7   0  -5    5.90    4.60
   7   0   5    1.10    3.80
   7   0   5    0.80    4.40
   7   0   6  855.41   41.10
  -7   0  -6  878.51   31.70
   7   0   6  849.32   37.40
  -7   0  -6  843.72   38.70
  -7   0  -7   22.30    6.40
   7   0   7    6.70    6.60
  -7   0  -7   -0.80    5.70
   7   0   7    9.60    6.50
   7   0   8   72.29   13.90
   7   0   8   69.29   15.90
   7   0   9   -8.30    6.80
   7   0   9    5.50    7.40
  -7   0 -10  435.06   21.30
   7   0  11   16.20    9.50
   7   0  11    3.90    7.50
   7   1 -14  193.48   17.60
   7  -1 -14  182.58   14.90
   7  -1 -14  185.28   16.10
   7   1 -13  176.38   17.60
   7   1 -13  134.29   16.70
   7  -1 -13  133.99   14.00
   7   1 -12  251.27   21.10
   7   1 -12  227.28   20.00
   7  -1 -12  220.48   19.40
   7  -1 -12  298.27   21.20
   7  -1 -12  256.17   17.10
   7   1 -11  162.18   16.80
   7   1 -11  207.38   18.40
   7  -1 -11  191.98   17.70
   7  -1 -11  156.38   18.20
   7   1 -10  683.53   35.40
   7   1 -10  737.33   32.70
   7   1 -10  649.43   33.80
   7   1 -10  718.93   36.20
   7   1 -10  698.73   33.70
   7  -1 -10  721.83   31.70
   7  -1 -10  726.03   32.70
   7  -1 -10  738.33   35.60
   7  -1 -10  732.13   28.10
   7  -1 -10  699.53   34.90
   7   1  -9  598.14   30.20
   7   1  -9  599.14   37.80
   7   1  -9  647.14   28.80
   7   1  -9  614.44   30.20
   7   1  -9  614.94   32.20
   7  -1  -9  599.54   30.50
   7  -1  -9  595.74   38.60
   7  -1  -9  596.84   24.40
   7  -1  -9  622.94   29.20
   7  -1  -9  569.34   26.90
   7   1  -8  418.56   24.90
   7   1  -8  421.66   23.60
   7   1  -8  394.86   23.90
   7   1  -8  448.76   22.60
   7   1  -8  411.66   23.70
   7  -1  -8  402.96   23.40
   7  -1  -8  412.56   20.80
  -7  -1   8  415.46   24.90
   7  -1  -8  410.96   19.00
   7  -1  -8  400.36   24.10
   7  -1  -8  431.96   23.30
   7   1  -7  317.67   19.40
  -7   1   7  325.57   19.80
   7   1  -7  324.47   20.50
   7   1  -7  318.57   18.60
   7   1  -7  312.97   20.60
   7   1  -7  316.57   20.00
  -7   1   7  335.77   16.40
  -7  -1   7  320.87   18.50
   7  -1  -7  322.77   16.70
   7  -1  -7  318.47   20.10
   7  -1  -7  328.37   19.50
  -7  -1   7  329.37   20.80
   7  -1  -7  329.17   16.20
   7   1  -6  379.46   19.50
   7   1  -6  354.56   20.90
   7   1  -6  352.06   20.30
  -7   1   6  371.36   20.30
  -7   1   6  358.96   16.70
   7   1  -6  356.36   20.40
   7  -1  -6  351.86   16.60
  -7  -1   6  360.86   20.90
  -7  -1   6  351.96   18.30
   7  -1  -6  353.16   20.30
   7  -1  -6  358.46   20.90
   7  -1  -6  375.06   16.90
  -7   1   5  367.96   16.20
   7   1  -5  363.66   21.10
  -7   1   5  376.56   19.50
   7   1  -5  349.96   19.10
   7   1  -5  388.06   19.20
   7  -1  -5  356.56   19.70
  -7  -1   5  341.67   19.70
   7  -1  -5  383.66   20.10
   7  -1  -5  359.46   16.60
   7   1  -4  355.56   18.00
   7   1  -4  318.97   17.40
  -7   1   4  329.27   15.30
   7   1  -4  334.47   18.70
  -7   1   4  339.67   18.00
   7  -1  -4  308.57   18.10
  -7  -1   4  322.67   16.80
   7  -1  -4  350.46   16.10
   7  -1  -4  333.17   18.20
  -7  -1   4  333.17   17.80
   7   1  -3  394.76   18.90
  -7   1   3  408.86   20.10
   7   1  -3  421.86   19.70
   7   1  -3  412.16   20.30
  -7   1   3  420.86   17.90
  -7  -1   3  390.36   18.70
  -7  -1   3  391.56   19.60
   7  -1  -3  440.46   18.70
   7  -1  -3  406.96   20.30
   7   1  -2  291.57   16.30
   7   1  -2  308.47   14.90
  -7   1   2  312.97   17.00
   7   1  -2  310.47   17.00
  -7  -1   2  301.47   16.60
   7  -1  -2  315.57   16.00
   7  -1  -2  319.17   17.40
  -7  -1   2  302.87   16.20
   7   1  -1   20.70    4.50
   7   1  -1   12.70    4.80
  -7   1   1   17.70    4.70
   7   1  -1   15.10    5.10
  -7  -1   1   15.00    5.00
   7  -1  -1   15.20    4.90
   7  -1  -1   13.00    4.90
  -7  -1   1   18.00    6.60
   7   1   0 1056.29   34.60
  -7   1   0 1004.30   35.20
   7   1   0 1013.70   29.70
   7   1   0 1005.00   35.60
  -7   1   0 1047.00   35.00
  -7  -1   0  985.00   33.30
   7  -1   0 1073.89   34.70
  -7  -1   0  991.50   34.80
   7  -1   0 1013.30   35.40
   7   1   1  420.46   20.90
  -7   1  -1  428.86   20.40
   7   1   1  443.46   14.80
   7   1   1  439.36   19.30
  -7   1  -1  416.16   20.60
   7  -1   1  430.56   20.90
  -7  -1  -1  398.96   20.20
   7  -1   1  434.26   20.90
  -7  -1  -1  442.76   19.30
  -7   1  -2  739.13   28.70
   7   1   2  746.73   26.90
  -7   1  -2  691.73   29.30
  -7  -1  -2  728.73   29.70
  -7  -1  -2  763.12   26.90
   7  -1   2  807.32   29.90
  -7   1  -3  216.38   15.80
  -7   1  -3  215.08   14.80
   7   1   3  234.28   13.70
   7   1   3  234.78   17.70
  -7  -1  -3  203.08   12.60
   7  -1   3  209.98   16.40
   7  -1   3  225.68   15.20
  -7  -1  -3  219.58   15.50
   7   1   4  430.06   19.00
  -7   1  -4  418.76   23.40
  -7   1  -4  425.86   21.00
   7   1   4  422.06   25.50
  -7  -1  -4  412.66   18.70
  -7  -1  -4  421.36   22.70
   7  -1   4  431.26   25.10
   7  -1   4  425.06   21.40
   7  -1   4  435.26   24.70
   7   1   5  598.44   22.80
  -7   1  -5  537.15   27.90
  -7   1  -5  593.54   26.10
   7   1   5  571.64   31.50
   7   1   5  547.05   27.30
   7  -1   5  552.94   20.00
  -7  -1  -5  550.44   22.10
   7  -1   5  589.74   31.30
   7  -1   5  581.34   29.90
  -7  -1  -5  549.74   27.60
   7   1   6  169.58   15.70
   7   1   6  155.08   17.50
  -7   1  -6  165.48   18.40
  -7   1  -6  152.98   15.50
  -7   1  -6  177.58   15.00
  -7  -1  -6  183.88   11.80
   7  -1   6  163.38   16.80
   7  -1   6  154.68   10.00
   7  -1   6  155.88   17.40
  -7  -1  -6  135.19   15.60
   7   1   7  608.64   30.70
  -7   1  -7  627.54   37.90
   7   1   7  582.84   34.90
  -7   1  -7  666.83   28.10
   7  -1   7  617.44   35.70
   7  -1   7  600.34   21.80
  -7  -1  -7  712.33   23.80
  -7  -1  -7  609.24   30.50
   7  -1   7  594.94   33.00
   7   1   8  130.69   18.00
   7   1   8  164.38   16.80
   7  -1   8  153.08   19.80
   7  -1   8  151.38   18.20
   7  -1   8  155.78   10.30
   7   1   9   80.09   13.60
  -7   1  -9  109.79   16.00
   7   1   9   92.29   16.90
   7  -1   9   80.09   14.30
   7   1  10   96.89   13.50
   7  -1  10   85.79   15.90
   7  -1  10   87.59   13.40
   7   1  11   23.00   12.20
   7  -1  11   25.80   10.00
   7  -1  11   30.00   12.20
   7  -2 -13   12.00    8.20
   7   2 -11  125.49   16.40
   7   2 -11  105.89   15.10
   7  -2 -11  118.79   22.30
   7  -2 -11  105.79    9.90
  -7  -2  11  101.49   15.30
   7  -2 -11   94.29   13.20
   7  -2 -11  139.19   14.40
   7   2 -10   79.69   14.50
   7   2 -10   97.49   14.40
   7   2 -10  100.09   22.30
   7   2 -10   65.09   12.60
   7  -2 -10   71.39    8.00
   7  -2 -10   82.49   14.90
   7  -2 -10   56.09   11.10
   7  -2 -10   86.19   11.00
  -7  -2  10   66.79   12.60
   7  -2 -10   89.99   13.00
   7   2  -9  198.68   17.90
   7   2  -9  174.08   16.60
   7   2  -9  173.38   17.30
   7   2  -9  145.59   17.40
   7  -2  -9  153.68   17.10
   7  -2  -9  203.68   17.40
  -7  -2   9  166.68   17.40
   7  -2  -9  185.78   13.70
   7  -2  -9  171.88   15.30
   7  -2  -9  182.88   11.40
   7   2  -8  229.38   17.40
   7   2  -8  209.68   17.60
   7   2  -8  219.78   18.10
  -7   2   8  232.28   16.90
   7   2  -8  229.48   18.50
   7   2  -8  195.58   18.00
   7  -2  -8  191.58   16.30
   7  -2  -8  226.68   12.20
  -7  -2   8  202.48   17.70
   7  -2  -8  203.58   13.20
   7  -2  -8  210.58   16.50
   7  -2  -8  193.58   17.70
   7   2  -7  340.37   20.00
  -7   2   7  310.17   19.30
  -7   2   7  330.77   14.60
   7   2  -7  301.17   21.20
   7   2  -7  285.87   20.00
   7   2  -7  318.47   20.80
   7  -2  -7  339.27   14.90
  -7  -2   7  304.87   19.00
  -7  -2   7  317.47   20.90
   7  -2  -7  312.87   20.30
   7  -2  -7  317.17   19.30
   7  -2  -7  311.07   14.80
  -7   2   6  498.55   23.60
   7   2  -6  497.95   25.30
   7   2  -6  462.65   25.00
  -7   2   6  463.85   18.30
   7   2  -6  469.05   24.20
   7   2  -6  512.55   24.10
   7  -2  -6  501.55   25.30
   7  -2  -6  512.05   29.00
   7  -2  -6  467.55   17.70
  -7  -2   6  467.95   23.00
  -7  -2   6  512.75   25.60
   7  -2  -6  499.05   18.80
  -7   2   5  846.52   32.40
   7   2  -5  834.72   32.80
   7   2  -5  828.92   33.80
   7   2  -5  862.01   38.40
  -7   2   5  838.72   27.10
  -7  -2   5  841.42   32.20
   7  -2  -5  869.41   27.90
   7  -2  -5  858.81   25.10
  -7  -2   5  910.41   39.10
   7  -2  -5  899.01   33.70
  -7   2   4 1278.27   37.40
   7   2  -4 1263.67   42.00
  -7   2   4 1270.67   42.40
   7   2  -4 1325.97   43.20
   7   2  -4 1306.37   44.10
  -7  -2   4 1317.47   43.20
   7  -2  -4 1286.87   43.20
  -7  -2   4 1264.27   41.90
   7  -2  -4 1297.57   38.20
   7   2  -3 1793.62   57.39
  -7   2   3 1758.42   53.69
   7   2  -3 1748.53   54.09
  -7   2   3 1779.02   49.20
   7   2  -3 1789.92   53.89
  -7  -2   3 1749.62   52.99
   7  -2  -3 1845.22   54.89
   7  -2  -3 1848.92   50.39
  -7  -2   3 1763.42   52.59
   7   2  -2  615.04   25.70
  -7   2   2  579.24   25.10
   7   2  -2  616.94   25.50
   7   2  -2  585.84   22.70
  -7   2   2  585.94   22.80
   7  -2  -2  569.94   25.70
   7  -2  -2  616.54   23.50
   7  -2  -2  609.54   20.20
  -7  -2   2  602.44   24.60
  -7  -2   2  592.84   23.30
   7   2  -1 1651.33   46.40
  -7   2   1 1730.53   52.19
   7   2  -1 1688.03   51.59
   7   2  -1 1650.83   50.09
  -7   2   1 1764.92   62.69
   7  -2  -1 1688.43   46.50
  -7  -2   1 1698.73   47.10
   7  -2  -1 1717.63   52.69
  -7  -2   1 1712.73   51.29
  -7  -2   1 1627.24   61.99
   7   2   0   11.60    4.70
  -7   2   0    5.90    4.00
  -7   2   0   13.80    6.00
   7   2   0    7.80    2.90
   7   2   0    9.80    5.10
   7  -2   0   18.10    6.90
   7  -2   0   12.10    4.40
  -7  -2   0   19.40    6.10
  -7  -2   0    6.60    4.10
  -7   2  -1 1265.97   41.90
   7   2   1 1342.67   39.90
  -7   2  -1 1219.68   41.90
   7   2   1 1220.28   33.20
   7   2   1 1300.87   43.20
  -7  -2  -1 1225.88   38.80
   7  -2   1 1250.67   41.10
   7  -2   1 1291.77   43.20
  -7  -2  -1 1311.57   42.50
  -7   2  -2 1171.48   40.80
   7   2   2 1183.38   36.00
  -7   2  -2 1164.88   40.20
   7   2   2 1174.78   42.00
   7  -2   2 1128.39   43.10
  -7  -2  -2 1155.18   35.80
  -7  -2  -2 1120.49   39.70
   7  -2   2 1136.49   40.50
  -7   2  -3   66.79   10.00
  -7   2  -3   69.69    9.50
  -7   2  -3   50.19   10.10
   7   2   3   60.59   10.60
   7   2   3   59.79    7.30
   7   2   3   55.79    9.30
   7  -2   3   64.09   10.10
  -7  -2  -3   62.89    8.30
  -7  -2  -3   59.79    9.30
   7  -2   3   58.39    9.50
  -7   2  -4  802.12   32.50
  -7   2  -4  793.02   35.10
  -7   2  -4  779.52   33.70
   7   2   4  795.02   26.30
  -7  -2  -4  735.93   25.90
  -7  -2  -4  802.52   32.80
   7  -2   4  759.02   32.20
   7  -2   4  791.22   35.60
   7  -2   4  781.72   35.20
  -7   2  -5  414.66   29.00
   7   2   5  408.36   26.70
  -7   2  -5  415.26   25.30
  -7   2  -5  389.56   22.20
   7   2   5  381.26   21.40
   7  -2   5  383.86   25.00
   7  -2   5  389.56   18.30
   7  -2   5  392.86   25.30
  -7  -2  -5  373.76   21.90
  -7   2  -6  311.97   23.20
  -7   2  -6  298.07   21.00
  -7   2  -6  330.87   21.10
   7   2   6  308.27   19.90
   7   2   6  323.47   24.70
   7  -2   6  300.87   23.50
   7  -2   6  303.37   22.80
   7  -2   6  295.37   16.10
  -7  -2  -6  299.87   20.20
   7   2   7  133.39   17.60
  -7   2  -7  152.88   15.70
   7   2   7  130.19   14.00
   7  -2   7  166.98   18.60
   7  -2   7  142.79   17.00
  -7  -2  -7  135.39   14.60
   7  -2   7  129.49   11.30
   7   2   8  258.37   24.50
  -7   2  -8  348.37   21.90
   7   2   8  286.17   21.20
  -7  -2  -8  290.57   24.60
   7  -2   8  248.88   15.70
   7  -2   8  314.77   25.60
   7  -2   8  279.97   25.00
   7   2   9  151.28   20.00
  -7   2  -9  117.69   19.40
   7   2   9  164.18   15.00
   7  -2   9  146.69   23.50
   7  -2   9  149.59   12.30
   7  -2   9  185.48   20.00
   7   2  10   15.40    9.70
   7  -2  10   37.60    9.90
   7  -2  10   25.70    9.40
   7  -2  10   34.40   10.90
   7   2  11   -5.30    7.90
   7  -2  11   30.30   10.90
   7   3 -14   29.40   10.60
   7   3 -14   13.20    8.90
  -7  -3  14   13.90    9.30
   7   3 -12   59.29   14.20
   7   3 -12   90.39   13.60
  -7  -3  12   56.89   13.80
   7  -3 -12   70.79   15.20
   7  -3 -12   42.40   10.70
   7   3 -11   58.69   12.80
   7   3 -11   42.50   11.90
  -7  -3  11   37.70   10.80
   7  -3 -11   64.19   12.90
   7   3 -10  167.08   31.20
   7   3 -10  220.08   20.00
   7   3 -10  211.78   19.20
   7  -3 -10  285.57   25.40
   7  -3 -10  213.58   18.00
   7  -3 -10  256.27   15.80
   7  -3 -10  260.67   18.40
  -7  -3  10  220.38   20.70
   7   3  -9  368.76   23.90
  -7   3   9  423.26   22.90
   7   3  -9  347.97   24.10
   7   3  -9  335.37   25.70
  -7  -3   9  327.37   24.10
   7  -3  -9  329.17   20.80
   7  -3  -9  360.16   22.00
   7  -3  -9  348.67   23.40
   7  -3  -9  387.46   17.50
   7   3  -8  423.06   27.30
   7   3  -8  415.56   25.30
   7   3  -8  424.66   26.20
   7   3  -8  430.86   25.10
  -7   3   8  445.26   23.80
   7   3  -8  406.46   26.20
   7  -3  -8  414.96   22.60
   7  -3  -8  383.26   17.10
   7  -3  -8  401.76   22.80
  -7  -3   8  428.86   26.10
   7  -3  -8  403.06   30.00
   7   3  -7 1545.75   53.99
   7   3  -7 1515.95   54.79
  -7   3   7 1558.34   50.49
  -7   3   7 1618.24   41.10
   7   3  -7 1558.14   54.99
   7   3  -7 1611.54   53.99
   7  -3  -7 1612.64   51.59
   7  -3  -7 1504.55   40.90
  -7  -3   7 1526.05   55.09
   7  -3  -7 1583.94   41.00
   7   3  -6   29.10    8.00
  -7   3   6   26.40    5.00
   7   3  -6   39.50    9.80
  -7   3   6   21.40    6.70
   7   3  -6   17.90    7.60
   7   3  -6   27.10    9.10
  -7  -3   6   17.60    6.30
   7  -3  -6   28.20    4.80
   7  -3  -6   30.90    8.30
  -7  -3   6   35.90    8.70
  -7   3   5  438.86   16.80
  -7   3   5  445.66   22.80
   7   3  -5  458.35   24.40
   7   3  -5  458.55   23.80
   7   3  -5  450.65   23.50
   7   3  -5  476.65   24.70
   7  -3  -5  506.15   34.50
  -7  -3   5  469.45   22.80
  -7  -3   5  467.95   24.20
   7   3  -4 1428.76   46.70
  -7   3   4 1362.96   45.00
   7   3  -4 1388.26   45.00
   7   3  -4 1377.36   47.00
   7   3  -4 1306.87   45.80
  -7   3   4 1333.87   38.20
  -7  -3   4 1328.47   45.10
   7  -3  -4 1384.76   60.89
  -7  -3   4 1340.17   47.80
   7   3  -3 1045.30   35.90
   7   3  -3 1058.69   38.70
   7   3  -3 1016.60   38.30
  -7   3   3 1039.70   37.60
  -7   3   3 1062.49   32.60
  -7  -3   3 1020.20   36.70
  -7  -3   3 1057.69   36.70
   7  -3  -3 1029.80   44.00
   7   3  -2  459.05   20.30
  -7   3   2  444.56   22.20
  -7   3   2  451.05   19.40
   7   3  -2  461.65   22.00
  -7  -3   2  467.25   22.30
   7  -3  -2  404.96   14.50
  -7  -3   2  453.85   20.30
  -7   3   1  634.74   25.30
   7   3  -1  649.24   26.40
   7   3  -1  678.33   24.00
   7   3  -1  657.93   38.50
  -7   3   1  660.63   28.10
   7  -3  -1  660.63   22.10
   7  -3  -1  671.83   33.30
  -7  -3   1  667.43   27.60
  -7  -3   1  671.33   24.50
   7   3   0  681.63   22.90
  -7   3   0  633.74   28.30
   7   3   0  693.63   38.90
  -7   3   0  689.73   27.40
   7   3   0  667.93   26.30
  -7  -3   0  683.23   28.20
   7  -3   0  702.43   29.90
  -7  -3   0  680.93   23.30
   7  -3   0  677.53   24.70
   7   3   1   75.19    9.90
   7   3   1   79.99    8.80
  -7   3  -1   61.49    9.60
  -7   3  -1   64.59    9.30
  -7   3  -1   70.09    9.00
  -7  -3  -1   76.39    6.10
  -7  -3  -1   84.29    9.70
   7  -3   1   81.59   11.00
   7  -3   1   61.19    8.00
   7   3   2  155.38   13.20
  -7   3  -2  126.29   12.00
  -7   3  -2  126.79   12.10
   7   3   2  138.99   10.40
  -7   3  -2  141.29   13.50
   7  -3   2  137.49   12.60
  -7  -3  -2  134.99   12.50
   7  -3   2  133.79   13.50
  -7   3  -3  709.23   30.60
   7   3   3  659.23   32.50
   7   3   3  661.23   23.60
  -7   3  -3  669.93   30.30
  -7   3  -3  654.03   30.10
   7   3   3  673.23   29.60
   7  -3   3  723.93   31.70
   7  -3   3  685.13   32.80
   7  -3   3  692.73   30.90
  -7  -3  -3  662.13   29.10
  -7   3  -4 1104.49   42.00
   7   3   4 1068.99   45.30
   7   3   4 1085.29   40.80
  -7   3  -4 1118.99   43.20
  -7  -3  -4 1070.79   40.10
   7  -3   4 1135.69   44.30
   7  -3   4 1079.99   44.90
   7   3   5  729.93   31.20
   7   3   5  721.33   36.90
  -7   3  -5  739.23   35.40
  -7   3  -5  728.93   33.30
  -7  -3  -5  725.63   31.40
  -7  -3  -5  722.63   31.40
   7  -3   5  733.43   36.30
   7  -3   5  728.23   31.20
   7  -3   5  748.63   36.20
   7   3   6  277.87   23.20
  -7   3  -6  263.07   20.80
   7   3   6  256.47   17.50
   7  -3   6  269.97   22.50
   7  -3   6  274.27   18.30
  -7  -3  -6  258.27   18.60
   7  -3   6  272.97   22.50
   7   3   7   15.20    6.40
   7   3   7   13.30    8.90
   7  -3   7    2.10    5.80
  -7  -3  -7   17.40    8.00
   7  -3   7   11.50    7.70
   7  -3   7   16.90    6.10
   7   3   8   49.20   14.40
  -7   3  -8   44.30   12.70
   7  -3   8   45.50    9.30
   7  -3   8   34.60   12.50
   7  -3   8   61.89   15.30
  -7  -3  -8   25.90   10.10
   7   3   9   96.39   12.90
   7   3   9  103.59   17.80
   7  -3   9  141.09   17.40
   7  -3   9  105.99   12.90
   7  -3   9  105.29   17.90
   7   3  10  266.67   19.90
   7   3  10  286.67   26.70
   7  -3  10  295.27   26.80
   7  -3  10  296.77   26.40
   7  -3  10  251.77   18.00
   7   3  11   89.99   20.00
   7  -3  11  123.99   19.60
   7  -3  11   86.79   12.30
   7  -3  11   86.69   19.10
   7   4 -14   42.50   11.40
  -7  -4  14   44.40   12.30
   7  -4 -14   77.89   11.40
   7   4 -13  121.09   16.80
   7   4 -13   99.89   17.10
   7  -4 -13  125.99   13.90
  -7  -4  13   76.59   17.80
   7   4 -12  292.07   25.70
   7   4 -12  287.07   27.90
  -7  -4  12  301.07   26.00
   7  -4 -12  286.07   19.70
   7   4 -11  118.49   17.00
   7   4 -11   87.69   15.80
  -7  -4  11   73.19   17.50
   7  -4 -11  108.39   14.10
   7   4 -10  147.19   17.70
   7   4 -10  141.19   17.30
   7  -4 -10  152.48   14.90
  -7  -4  10  142.09   17.60
   7   4  -9   21.20   10.00
   7   4  -9   15.80    7.60
  -7  -4   9   13.10    7.30
   7  -4  -9   16.60    8.80
   7  -4  -9   25.30    7.70
   7  -4  -9   19.70    8.00
   7   4  -8  768.92   37.30
  -7   4   8  870.71   32.50
   7   4  -8  756.32   37.60
   7   4  -8  728.43   44.20
   7   4  -8  797.12   36.70
   7  -4  -8  724.93   31.40
   7  -4  -8  771.72   32.70
  -7  -4   8  749.62   37.20
   7   4  -7  141.49   15.20
   7   4  -7  139.19   16.00
   7   4  -7  136.49   16.60
  -7   4   7  177.08   15.10
   7   4  -7  146.69   20.00
   7  -4  -7  151.48   14.30
  -7  -4   7  136.99   15.00
   7   4  -6  183.88   16.20
   7   4  -6  193.58   15.70
   7   4  -6  160.58   15.50
  -7   4   6  195.38   14.30
   7   4  -6  170.68   16.60
  -7  -4   6  161.48   15.50
   7  -4  -6  176.78   15.20
  -7  -4   6  166.78   15.60
  -7   4   5  499.25   16.70
  -7   4   5  464.15   23.50
   7   4  -5  528.75   27.20
   7   4  -5  478.65   25.20
   7   4  -5  477.55   26.20
   7   4  -5  459.85   25.10
  -7  -4   5  446.06   24.70
   7  -4  -5  517.15   25.30
  -7  -4   5  510.25   26.40
   7   4  -4   26.20    7.40
   7   4  -4   33.50    8.10
  -7   4   4   33.40    8.90
   7   4  -4   31.80    8.40
  -7   4   4   43.60    6.00
   7   4  -4   28.70    7.50
  -7  -4   4   28.90    7.10
  -7  -4   4   29.20    7.50
   7  -4  -4   37.30   10.00
   7   4  -3  909.81   35.20
   7   4  -3  897.61   35.90
   7   4  -3  886.51   33.40
   7   4  -3  895.21   35.40
  -7   4   3  853.01   28.80
  -7   4   3  870.81   34.70
  -7  -4   3  823.02   34.10
  -7  -4   3  884.31   36.10
   7  -4  -3  955.10   36.50
   7   4  -2 1009.10   50.19
   7   4  -2 1018.30   35.50
  -7   4   2 1008.20   38.40
  -7   4   2 1046.80   34.10
   7   4  -2 1061.89   39.20
  -7  -4   2  987.80   37.60
   7  -4  -2 1060.89   39.90
  -7  -4   2 1082.69   36.60
   7   4  -1   41.00    7.10
  -7   4   1   53.49    9.40
  -7   4   1   47.10   10.60
   7   4  -1   41.60    8.10
   7  -4  -1   37.40    5.20
   7  -4  -1   42.60    9.40
  -7  -4   1   43.30    7.10
  -7  -4   1   40.80    8.50
  -7   4   0  222.58   16.80
   7   4   0  221.48   15.90
   7   4   0  213.78   14.30
  -7   4   0  209.68   14.50
  -7   4   0  215.58   12.90
  -7  -4   0  223.08   12.80
  -7  -4   0  207.68   15.30
   7  -4   0  211.08   17.00
   7  -4   0  207.28   12.40
  -7   4  -1  598.34   27.10
   7   4   1  628.64   24.80
  -7   4  -1  608.94   25.20
  -7   4  -1  588.74   28.80
   7   4   1  624.04   27.80
   7  -4   1  620.34   29.80
  -7  -4  -1  626.14   21.80
  -7  -4  -1  579.84   26.90
   7  -4   1  610.34   25.00
   7   4   2   63.49   10.20
  -7   4  -2   59.49   10.10
   7   4   2   68.89    8.30
  -7   4  -2   76.89   11.10
   7  -4   2   71.99   11.70
   7  -4   2   66.09    9.30
  -7  -4  -2   73.19   10.50
  -7  -4  -2   71.69    6.10
   7  -4   2   65.49   11.30
  -7   4  -3  220.88   18.00
  -7   4  -3  214.58   17.20
   7   4   3  228.68   17.00
   7   4   3  230.38   12.50
   7  -4   3  215.18   18.80
  -7  -4  -3  215.68   16.20
   7  -4   3  214.98   16.60
   7   4   4  127.19   13.10
  -7   4  -4   94.09   14.70
   7   4   4  105.89   14.70
  -7   4  -4  111.39   20.30
   7  -4   4  118.79   13.90
  -7  -4  -4  103.89   12.70
   7  -4   4  125.89   15.60
  -7   4  -5  747.83   35.10
   7   4   5  769.72   38.70
   7   4   5  727.23   29.00
   7  -4   5  748.33   38.30
   7  -4   5  771.12   32.80
   7  -4   5  776.52   37.20
  -7  -4  -5  725.93   31.90
  -7   4  -6  184.48   19.00
   7   4   6  197.68   14.30
   7   4   6  187.38   19.90
  -7   4  -6  247.68   21.80
   7  -4   6  226.58   17.10
   7  -4   6  234.08   21.10
   7  -4   6  215.38   21.20
  -7  -4  -6  185.98   16.80
   7   4   7   66.39   10.70
   7   4   7  101.29   15.80
   7  -4   7   70.69   15.60
   7  -4   7   92.39   12.10
   7  -4   7  100.89   16.10
  -7  -4  -7   87.59   13.70
   7   4   8   24.90    7.70
   7   4   8   21.40   12.20
   7  -4   8   13.60    7.50
   7  -4   8    9.70    8.70
   7  -4   8   29.50   10.60
  -7  -4  -8   33.80    8.30
   7   4   9   52.19   14.50
   7  -4   9   60.69   11.10
   7  -4   9   54.99   15.90
   7  -4   9   63.19   15.70
   7   4  10  145.39   19.30
   7   4  10  183.08   17.20
   7  -4  10  125.99   20.90
   7  -4  10  158.08   16.10
   7  -4  10  153.88   21.70
   7  -5 -13   96.29   10.10
   7   5 -12   67.99   15.80
  -7  -5  12   64.99   14.40
   7  -5 -12   73.79   12.40
   7   5 -11   96.29   17.00
   7   5 -11   85.69   15.90
   7  -5 -11  102.39   12.20
  -7  -5  11   78.19   15.40
   7   5 -10  179.48   20.60
   7   5 -10  197.18   19.80
   7  -5 -10  176.58   16.90
   7  -5 -10  151.98   15.30
  -7  -5  10  170.98   20.30
   7   5  -9   90.39   15.40
   7  -5  -9  104.79   13.10
  -7  -5   9  118.29   16.40
   7   5  -8  591.34   32.10
   7  -5  -8  529.75   25.60
  -7  -5   8  582.24   33.30
   7  -5  -8  520.95   27.00
  -7   5   7   83.59   15.90
   7   5  -7   73.19   12.90
   7   5  -7   52.49   12.20
   7  -5  -7   40.20   10.10
  -7  -5   7   43.70   11.80
   7   5  -6  512.95   39.80
   7   5  -6  564.24   30.10
  -7   5   6  515.95   26.90
   7   5  -6  544.65   29.90
  -7  -5   6  552.34   34.10
   7  -5  -6  577.94   27.70
  -7  -5   6  567.04   30.30
  -7   5   5  139.89   14.00
   7   5  -5  123.39   15.00
   7   5  -5  135.89   14.80
   7   5  -5  125.89   14.60
  -7  -5   5  133.69   14.50
   7  -5  -5  153.68   15.00
  -7  -5   5  132.09   23.40
  -7   5   4  290.47   19.60
   7   5  -4  307.27   20.90
   7   5  -4  285.67   20.60
  -7   5   4  324.17   14.10
   7   5  -4  301.47   20.50
  -7  -5   4  324.67   21.00
  -7  -5   4  302.27   20.60
   7  -5  -4  336.57   21.10
  -7   5   3  557.84   27.40
   7   5  -3  580.84   28.70
   7   5  -3  543.75   27.10
   7   5  -3  528.35   25.80
   7   5  -3  549.05   27.70
  -7   5   3  594.44   21.80
  -7  -5   3  580.54   27.30
   7  -5  -3  564.54   28.60
  -7  -5   3  495.65   26.90
  -7   5   2   60.29   11.20
   7   5  -2   55.29   10.10
   7   5  -2   52.69   10.40
  -7   5   2   55.59    8.00
   7   5  -2   48.10    9.60
  -7  -5   2   55.29   11.40
  -7  -5   2   51.99   10.70
   7  -5  -2   53.29   10.90
   7   5  -1  221.88   17.20
  -7   5   1  189.38   16.50
  -7   5   1  222.78   14.50
   7   5  -1  197.98   15.10
   7   5  -1  208.88   16.50
  -7  -5   1  207.98   14.60
   7  -5  -1  194.58   17.60
  -7  -5   1  211.58   16.70
   7   5   0 1102.89   38.80
  -7   5   0 1089.79   42.90
   7   5   0 1158.48   42.10
  -7   5   0 1110.99   35.00
  -7  -5   0 1024.10   40.00
  -7  -5   0 1152.18   37.40
   7  -5   0 1113.69   44.30
   7   5   1  106.29   12.30
   7   5   1  116.29   11.00
  -7   5  -1  114.89   13.30
  -7  -5  -1  100.09   12.80
  -7  -5  -1  101.69    9.40
   7  -5   1  126.49   14.60
   7  -5   1   88.99   13.20
   7  -5   1  104.19   10.80
   7   5   2  408.06   19.00
  -7   5  -2  414.76   27.60
  -7   5  -2  440.86   22.20
   7   5   2  425.86   23.30
   7  -5   2  388.66   25.20
  -7  -5  -2  409.36   17.00
   7  -5   2  366.96   21.20
  -7  -5  -2  370.96   22.40
   7   5   3   96.99   12.10
  -7   5  -3  111.49   13.50
   7  -5   3   90.69   11.80
  -7  -5  -3  101.79   13.40
   7  -5   3   94.19   14.30
  -7   5  -4   21.60    8.50
   7   5   4   10.00    7.40
   7   5   4   13.50    6.50
   7  -5   4    8.30    6.60
   7  -5   4   11.90    6.60
  -7  -5  -4   16.40    7.20
   7   5   5  670.73   37.00
  -7   5  -5  759.32   34.50
   7   5   5  635.64   25.30
   7   5   5  668.23   31.00
   7  -5   5  669.53   37.10
   7  -5   5  699.43   35.40
   7  -5   5  647.04   32.10
  -7  -5  -5  606.74   30.00
   7   5   6  126.29   11.50
   7   5   6  152.58   17.70
   7   5   6  153.38   17.60
  -7  -5  -6  140.79   19.00
   7  -5   6  116.39   17.90
   7  -5   6  124.59   14.60
   7  -5   6  160.78   17.90
   7   5   7   28.90   11.40
   7   5   7   22.20    7.00
   7  -5   7   37.80   12.20
  -7  -5  -7   30.10    8.30
   7  -5   7   32.80   11.20
   7  -5   7   40.00    9.00
   7   5   8   25.70    6.70
   7   5   8   18.40    8.80
  -7  -5  -8    9.90    8.60
   7  -5   8   22.30    7.00
   7  -5   8   56.49   13.80
   7  -5   8    7.60    9.20
   7   5   9  143.19   16.60
   7   5   9  185.78   21.70
   7  -5   9  172.78   17.50
   7  -5   9  170.48   21.30
   7  -5   9  150.38   22.00
   7   5  10  218.88   14.70
   7   5  10  171.28   20.80
   7  -5  10  162.48   19.30
   7  -5  10  182.28   16.40
   7  -5  10  131.79   22.20
   7   6 -12  124.19   17.10
   7   6 -12  113.89   17.60
  -7  -6  12  101.29   16.30
   7   6 -11  388.56   28.80
  -7  -6  11  327.27   28.70
   7  -6 -11  322.77   20.70
   7   6 -10  105.09   16.10
  -7  -6  10  104.19   17.20
   7  -6 -10   91.19   12.70
   7   6  -9  131.89   19.60
   7  -6  -9  124.19   14.60
   7  -6  -9  152.38   13.30
  -7  -6   9  118.59   21.90
   7   6  -8  160.88   18.50
  -7  -6   8  166.18   19.00
   7  -6  -8  171.28   16.20
  -7   6   7  721.63   32.20
   7   6  -7  631.24   35.00
   7  -6  -7  661.63   31.80
  -7  -6   7  680.33   36.40
   7   6  -6  188.98   18.50
  -7   6   6  194.68   16.60
   7  -6  -6  201.38   17.70
  -7  -6   6  205.68   19.20
   7   6  -5  871.51   44.50
   7   6  -5  840.12   38.60
  -7   6   5  830.32   36.00
  -7  -6   5  754.62   36.40
  -7  -6   5  851.41   38.80
   7  -6  -5  863.11   37.30
   7   6  -4  356.06   23.70
  -7   6   4  328.47   21.90
   7   6  -4  381.16   24.20
  -7   6   4  373.56   15.90
   7  -6  -4  366.46   23.50
  -7  -6   4  382.46   24.20
  -7  -6   4  377.06   24.10
   7   6  -3  105.59   13.70
  -7   6   3  103.99    9.30
  -7   6   3   97.49   13.40
   7   6  -3   98.59   13.40
  -7  -6   3  117.79   13.50
   7  -6  -3  104.49   13.90
   7   6  -2  188.68   17.00
  -7   6   2  171.88   12.80
   7   6  -2  170.08   15.20
  -7   6   2  126.29   22.60
   7   6  -2  180.18   16.20
  -7  -6   2  172.88   15.40
   7  -6  -2  170.18   17.00
  -7  -6   2  137.89   18.80
  -7   6   1  382.66   24.30
  -7   6   1  369.16   19.50
  -7   6   1  378.26   15.40
   7   6  -1  380.46   22.20
   7   6  -1  327.87   20.20
   7   6  -1  400.56   23.50
   7  -6  -1  353.96   24.20
  -7  -6   1  374.26   21.20
   7  -6  -1  358.36   22.80
  -7   6   0  438.96   18.70
   7   6   0  400.46   22.50
   7   6   0  428.56   25.00
   7   6   0  491.25   21.00
  -7   6   0  433.96   24.80
  -7  -6   0  438.26   23.60
   7  -6   0  436.66   25.70
  -7  -6   0  437.66   23.80
   7  -6   0  398.16   26.30
   7   6   1  276.07   17.50
   7   6   1  240.08   18.60
   7   6   1  292.97   17.50
  -7   6  -1  289.17   16.30
  -7  -6  -1  272.17   20.30
  -7  -6  -1  271.17   16.30
  -7   6  -2  333.67   18.50
   7   6   2  267.37   18.90
   7   6   2  276.17   16.60
   7  -6   2  293.27   22.50
  -7  -6  -2  268.57   19.90
  -7  -6  -2  305.17   16.20
   7   6   3  105.49   12.90
   7  -6   3   75.89   13.60
  -7  -6  -3  139.19   13.80
  -7  -6  -3  102.89    9.20
  -7   6  -4   28.30    9.10
   7  -6   4   15.90    9.20
  -7  -6  -4   22.00    7.60
   7   6   5  270.07   14.20
   7   6   5  308.47   20.40
   7   6   5  304.27   25.20
   7  -6   5  272.97   22.10
   7  -6   5  300.97   25.60
  -7  -6  -5  288.97   32.40
   7   6   6  100.59   15.00
   7  -6   6  112.39   20.10
  -7  -6  -6  128.89   14.80
   7  -6   6   75.89   13.10
   7   6   7  209.38   22.30
   7  -6   7  251.97   18.70
  -7  -6  -7  220.48   21.20
   7  -6   7  198.08   23.00
   7  -6   8   17.10    6.20
   7   6   9   46.70   13.70
   7  -6   9   72.09   14.30
   7  -6   9   55.29   16.20
   7  -7 -11  194.28   15.60
  -7  -7  11  150.68   20.00
   7   7 -10   31.30   13.60
   7   7  -9   23.00   11.30
   7  -7  -9   25.40    8.50
  -7  -7   9   13.80   10.10
   7   7  -7  240.78   22.10
   7  -7  -7  254.67   19.80
  -7  -7   7  218.98   21.70
   7   7  -6  310.47   24.20
  -7  -7   6  299.67   24.10
   7  -7  -6  297.77   22.10
  -7   7   5  944.51   39.80
   7   7  -5 1070.89   41.90
   7   7  -5  885.31   41.90
  -7  -7   5  929.91   43.90
   7  -7  -5  946.41   41.10
   7   7  -4  235.78   20.60
  -7   7   4  256.47   12.70
  -7   7   4  232.18   19.40
  -7  -7   4  254.17   21.20
   7  -7  -4  262.57   21.00
   7   7  -3  100.79   14.90
  -7   7   3   90.69   13.60
   7   7  -3   83.39   13.30
  -7  -7   3  107.19   15.50
   7  -7  -3   76.09   13.50
  -7  -7   3   84.99   13.20
   7  -7  -3   86.39   12.90
  -7   7   2   66.29    9.70
  -7   7   2   67.79   14.40
   7   7  -2   82.39   12.90
   7   7  -2   71.69   14.20
  -7  -7   2   62.39   11.50
  -7  -7   2   84.59   12.20
   7  -7  -2   81.49   15.70
   7  -7  -2   61.99   11.90
  -7   7   1  584.94   20.60
   7   7  -1  490.55   25.60
  -7   7   1  549.25   36.20
   7   7  -1  581.44   30.30
   7   7  -1  583.44   29.30
  -7  -7   1  600.24   29.30
  -7  -7   1  570.94   29.10
   7   7   0  929.81   40.50
  -7   7   0 1022.10   32.90
   7   7   0  956.40   35.40
   7   7   0  970.20   38.60
  -7  -7   0  923.61   40.30
   7  -7   0  968.20   41.40
  -7  -7   0 1049.30   39.50
  -7   7  -1 1024.40   36.10
   7   7   1 1013.70   38.10
   7   7   1  921.31   40.00
   7   7   1 1100.79   35.70
   7  -7   1  993.90   43.50
  -7  -7  -1  931.31   40.10
  -7  -7  -1 1038.50   38.50
   7   7   2  276.17   17.60
   7   7   2  287.77   14.80
   7   7   2  230.58   19.30
  -7  -7  -2  257.37   20.40
   7  -7   2  258.57   22.20
  -7  -7  -2  258.87   17.10
   7   7   3   66.79   10.10
  -7  -7  -3   59.49    9.10
   7  -7   3   82.49   14.70
  -7  -7  -3   96.19   15.90
   7   7   4  153.98   15.40
   7  -7   4  109.59   18.20
  -7  -7  -4  118.99   10.50
  -7  -7  -4  134.99   17.80
   7   7   5  106.49   13.20
   7   7   5   87.39   16.10
   7  -7   5   80.09   14.10
  -7  -7  -5  114.89   16.70
   7  -7   5  143.79   21.20
   7   7   6  210.08   21.60
   7  -7   6  189.08   21.90
  -7  -7  -6  156.58   19.20
   7  -7   6  245.88   24.40
   7   7   7  177.58   19.50
   7  -7   7  199.98   18.30
  -7  -7  -7  251.47   20.00
   7  -7   7  192.58   21.70
   7   7   8  247.78   27.10
   7  -7   8  277.77   27.90
   7  -7   8  286.97   23.60
   7   8 -10  110.99   19.80
  -7  -8  10  181.58   20.50
   7   8  -9   31.60    9.30
  -7  -8   9   15.90    8.00
   7   8  -8   72.09   15.10
  -7  -8   8   90.69   19.70
   7   8  -7   -0.10    5.70
  -7  -8   7   -3.90    5.90
   7   8  -6   19.10    9.70
  -7   8   6   26.00   11.60
  -7  -8   6   14.60   11.20
   7   8  -5  145.29   17.60
  -7  -8   5  107.29   16.50
   7   8  -4  130.59   16.90
  -7   8   4  105.69   11.00
  -7  -8   4  142.39   17.50
   7  -8  -4  112.39   13.30
   7   8  -3   23.40    9.20
  -7   8   3   32.40    7.50
  -7  -8   3   23.70   10.40
   7  -8  -3   27.50    8.60
   7   8  -2  187.18   18.10
   7   8  -2  134.69   17.30
  -7   8   2  195.98   13.90
   7  -8  -2  156.38   16.00
  -7  -8   2  155.38   17.40
   7   8  -1   65.59   12.60
  -7  -8   1   70.09   13.00
   7  -8  -1   69.79   12.70
   7   8   0   -0.60    7.40
  -7  -8   0    3.60    6.20
   7  -8   0   10.80    7.10
   7   8   1  220.38   19.00
   7   8   1  253.67   19.80
   7  -8   1  251.77   20.50
  -7  -8  -1  216.98   18.40
  -7  -8  -1  269.47   23.90
   7   8   2  106.69   13.80
   7   8   2  161.08   13.60
   7  -8   2  131.49   16.90
  -7  -8  -2  158.48   17.30
   7   8   3  249.58   16.70
   7   8   3  269.07   18.60
  -7  -8  -3  272.07   18.10
   7  -8   3  274.47   24.10
   7   8   4   29.40    8.20
  -7  -8  -4   26.00   11.60
   7  -8   4   28.90   11.20
   7   8   5  174.48   14.20
   7  -8   5  143.29   20.50
   7  -8   5  122.69   17.60
  -7  -8  -5  171.98   11.10
   7   8   6  246.48   24.80
   7  -8   6  219.18   25.60
   7  -8   6  250.57   24.00
   7  -8   7   39.20   12.30
   7  -8   7   24.60   12.80
   7   9  -8  164.18   20.00
  -7  -9   8  127.89   19.70
   7   9  -7  201.38   21.90
  -7  -9   7  232.18   23.20
   7   9  -6  141.89   19.50
  -7  -9   6  151.48   20.70
   7   9  -5   20.80    8.30
  -7  -9   5    3.70    8.10
  -7   9   4  236.78   11.80
  -7   9   4  181.48   13.20
   7   9  -4  170.48   20.10
   7  -9  -4  252.37   15.90
  -7   9   3  135.79   11.10
   7  -9  -3  108.29   11.40
  -7   9   2   94.69   15.60
   7   9  -2   88.49   15.80
  -7  -9   2  109.39   17.00
   7  -9  -2  137.29   15.70
   7   9  -1   21.70    9.40
  -7   9   1   31.70    9.60
   7   9   0  159.08   15.80
   7   9   0  183.88   17.30
  -7  -9   0  139.59   15.60
   7  -9   0  122.49   16.80
   7   9   1  175.58   14.90
   7   9   1  125.19   15.80
  -7  -9  -1  103.19   15.50
   7  -9   1  155.78   17.80
   7   9   2    7.50    7.40
  -7  -9  -2    7.50    5.40
   7   9   3   76.89   13.20
   7  -9   3   88.19   19.30
  -7  -9  -3   80.59   13.70
   7   9   4   84.59   14.90
   7  -9   4   65.19   14.80
  -7  -9  -4  118.39   13.60
   7  -9   4  112.29   17.60
   7   9   5  309.47   22.80
   7   9   5  252.97   19.50
   7  -9   5  255.47   23.70
   7  -9   5  247.98   25.50
   7  10  -6   10.70    9.20
  -7 -10   6   20.40   10.00
   7  10  -5  109.89   16.30
  -7 -10   5  140.09   16.10
   7  10  -4   53.89   15.40
  -7 -10   4   67.79   13.90
  -7  10   3  399.46   20.80
   7  10  -3  363.66   29.70
  -7 -10   3  377.36   29.60
  -7  10   2  557.84   26.80
  -7  10   2  609.94   27.20
   7  10  -2  575.44   32.20
  -7 -10   2  540.95   35.20
   7 -10  -2  580.64   30.00
  -7  10   1  258.87   18.10
   7  10  -1  230.38   19.00
   7 -10  -1  223.18   18.20
  -7 -10   1  206.18   25.80
  -7  10   0  209.18   22.50
   7  10   0  219.38   20.30
  -7 -10   0  267.87   23.20
   7 -10   0  280.27   22.10
  -7  10  -1  155.28   15.00
  -7 -10  -1  182.18   15.70
   7  10   2  237.88   16.80
   7  10   2  148.79   17.40
  -7  10  -2  210.48   20.50
  -7 -10  -2  219.38   17.70
   7  10   3   75.49   12.10
   7 -10   3   75.69   15.00
   8   0 -14  578.84   27.70
   8   0 -14  516.35   29.90
   8   0 -13   14.70    6.60
   8   0 -13   -2.20    6.90
   8   0 -12  973.20   38.50
   8   0 -12  962.90   42.20
   8   0 -12  902.91   41.50
   8   0 -10  633.14   33.00
   8   0 -10  600.64   31.30
   8   0 -10  721.33   43.40
   8   0 -10  607.64   28.00
   8   0 -10  629.34   31.80
   8   0  -9   -1.20    5.30
   8   0  -9   -1.70    5.50
   8   0  -9   -4.50    4.00
   8   0  -9   -4.80    7.00
  -8   0   8  213.88   15.50
   8   0  -8  181.18   17.50
   8   0  -8  208.88   17.10
   8   0  -8  190.68   15.60
   8   0  -8  196.88   15.60
   8   0  -8  197.48   16.90
   8   0  -7   -3.10    4.00
   8   0  -7    6.70    4.30
  -8   0   7    2.20    4.50
   8   0  -7    0.80    4.10
   8   0  -7    0.60    4.30
   8   0  -6 1548.65   47.00
   8   0  -6 1497.45   50.39
   8   0  -6 1458.25   50.09
  -8   0   6 1453.95   45.40
  -8   0   6 1504.65   49.80
   8   0  -5    3.00    3.80
  -8   0   5   -0.50    3.50
  -8   0   5    5.30    4.20
   8   0  -5    2.90    4.20
   8   0  -4  869.91   32.60
  -8   0   4  877.31   33.50
  -8   0   4  830.92   30.40
   8   0  -4  886.61   31.70
   8   0  -3   -0.60    3.70
   8   0  -3   -1.20    3.10
   8   0  -3   -0.70    2.80
  -8   0   3    4.60    4.30
  -8   0   3   -0.70    3.60
   8   0  -2  280.37   15.60
  -8   0   2  290.77   17.00
  -8   0   2  278.07   15.80
   8   0  -2  287.37   17.40
   8   0  -1   -0.40    3.50
   8   0  -1   -1.90    2.40
   8   0  -1   -0.10    3.20
  -8   0   1    1.40    3.70
  -8   0   1   -3.60    3.50
   8   0   0  592.34   25.60
   8   0   0  610.64   31.60
  -8   0   0  578.64   25.60
  -8   0   0  633.14   25.80
   8   0   1   -3.00    3.70
  -8   0  -1   -0.40    4.10
  -8   0  -1    5.30    4.20
   8   0   1   -0.80    3.60
   8   0   1    2.40    4.20
   8   0   2 1098.09   41.80
  -8   0  -2 1078.29   37.30
   8   0   2 1124.59   38.30
   8   0   3   -3.40    3.90
  -8   0  -3   -2.40    3.50
   8   0   3   -3.90    3.60
  -8   0  -4   88.59   11.00
   8   0   4   90.49   13.60
   8   0   4   96.99   10.50
  -8   0  -4  107.49   12.80
   8   0   5   -0.90    4.80
  -8   0  -5   -0.90    5.30
  -8   0  -5   12.30    5.20
   8   0   5   -2.10    3.90
  -8   0  -6  180.08   13.80
   8   0   6  147.19   17.60
  -8   0  -6  126.99   15.80
   8   0   7    3.60    6.90
   8   0   7    7.60    5.20
   8   0   8  102.09   16.70
   8   0   8  118.59   14.10
   8   0   9   -5.40    5.20
   8   0   9    6.30    7.90
   8   0  10  194.08   17.70
   8   0  10  132.19   22.10
   8   0  11   24.90    9.90
   8   1 -14  229.38   30.10
   8  -1 -14  203.18   15.40
   8  -1 -14  237.58   20.70
   8   1 -13   40.10   11.70
   8  -1 -13   60.49   10.30
   8   1 -12  211.08   17.10
   8   1 -12  152.48   16.40
   8  -1 -12  176.58   16.10
   8  -1 -12  144.79   13.40
   8   1 -11  342.27   23.90
   8   1 -11  290.57   20.90
   8   1 -11  287.27   22.20
   8  -1 -11  281.37   17.80
   8  -1 -11  295.37   21.90
   8  -1 -11  247.08   20.30
   8   1 -10  283.37   23.40
   8   1 -10  357.76   24.10
   8   1 -10  345.07   21.80
   8   1 -10  335.47   25.80
   8  -1 -10  350.76   32.00
   8  -1 -10  351.86   18.60
   8  -1 -10  355.36   23.00
   8  -1 -10  386.96   21.20
   8   1  -9   93.99   16.10
   8   1  -9   65.49   12.00
   8   1  -9   63.09   10.80
   8  -1  -9   85.99   13.80
   8  -1  -9   83.49   12.40
   8  -1  -9  101.89   12.70
   8  -1  -9   71.59    9.60
   8  -1  -9   79.29   11.90
   8   1  -8  720.93   32.70
   8   1  -8  744.63   36.20
  -8   1   8  738.73   27.70
   8   1  -8  733.93   33.70
   8   1  -8  789.12   32.10
   8   1  -8  693.33   33.90
   8  -1  -8  700.23   34.60
   8  -1  -8  751.72   28.00
   8  -1  -8  716.73   33.50
  -8  -1   8  730.83   31.30
   8  -1  -8  699.43   32.00
   8  -1  -8  764.92   29.30
   8   1  -7 1618.74   54.59
  -8   1   7 1600.64   53.19
   8   1  -7 1526.15   53.59
   8   1  -7 1606.44   51.49
   8   1  -7 1590.64   55.29
  -8   1   7 1643.24   49.10
   8  -1  -7 1573.34   54.29
  -8  -1   7 1568.84   50.39
   8  -1  -7 1635.44   48.10
   8  -1  -7 1622.74   47.80
   8  -1  -7 1569.34   53.19
   8   1  -6  403.56   23.00
  -8   1   6  406.36   22.50
   8   1  -6  402.56   22.50
  -8   1   6  341.97   23.90
   8  -1  -6  396.96   22.60
   8  -1  -6  442.16   19.60
   8  -1  -6  440.36   23.20
  -8   1   5  477.75   23.50
   8   1  -5  481.15   24.60
   8   1  -5  473.25   23.30
  -8   1   5  462.85   23.00
   8   1  -5  479.55   22.80
  -8  -1   5  453.05   22.00
   8  -1  -5  498.55   24.40
   8  -1  -5  479.55   24.30
   8  -1  -5  488.15   21.10
   8   1  -4   57.89    8.40
  -8   1   4   81.29   15.40
   8   1  -4   61.29    9.80
   8   1  -4   66.79    9.40
  -8   1   4   62.39    9.00
  -8  -1   4   64.39    9.30
   8  -1  -4   61.49    8.20
   8  -1  -4   68.59    9.10
  -8  -1   4   49.80    8.20
   8  -1  -4   58.69   11.00
  -8   1   3  138.69   12.10
  -8   1   3  150.78   11.10
   8   1  -3  140.29   12.60
   8   1  -3  150.48   12.30
   8   1  -3  143.59   11.20
   8  -1  -3  138.79   11.20
  -8  -1   3  164.58   12.20
   8  -1  -3  135.59   13.60
  -8  -1   3  155.68   13.10
  -8   1   2  341.17   18.70
   8   1  -2  326.47   18.40
   8   1  -2  357.46   19.00
  -8   1   2  317.77   17.00
   8   1  -2  338.07   16.50
  -8  -1   2  302.77   17.40
   8  -1  -2  344.47   19.20
   8  -1  -2  346.67   18.00
  -8  -1   2  327.47   18.20
   8   1  -1  978.80   35.30
   8   1  -1  963.40   36.00
  -8   1   1  994.70   34.60
   8   1  -1  951.50   30.90
  -8   1   1  942.01   35.10
  -8  -1   1  959.80   34.80
   8  -1  -1  994.40   33.60
   8  -1  -1 1021.30   35.70
  -8  -1   1  980.40   34.50
   8  -1  -1 1008.50   36.60
  -8   1   0  227.58   15.10
  -8   1   0  260.07   15.40
   8   1   0  239.38   18.70
   8   1   0  235.58   15.10
   8   1   0  205.28   11.10
   8  -1   0  228.28   15.00
   8  -1   0  229.58   15.60
  -8  -1   0  225.08   14.30
  -8  -1   0  218.28   14.80
  -8   1  -1  119.69   11.50
   8   1   1  110.39   11.60
  -8   1  -1  103.69   11.00
   8   1   1  113.79    7.30
   8   1   1  108.39   10.30
   8  -1   1  105.79   11.50
  -8  -1  -1  125.69   11.80
  -8  -1  -1  109.49   10.80
   8  -1   1  131.29   12.20
  -8   1  -2  677.53   29.60
   8   1   2  653.83   19.50
   8   1   2  695.53   30.40
   8   1   2  687.63   27.00
   8   1   2  692.63   31.80
  -8   1  -2  676.73   28.50
   8  -1   2  728.83   36.20
   8  -1   2  673.43   30.00
  -8  -1  -2  686.53   29.70
  -8  -1  -2  681.43   26.70
  -8   1  -3  210.78   16.50
   8   1   3  224.68   14.60
   8   1   3  225.08   18.60
  -8   1  -3  235.88   16.30
  -8  -1  -3  252.07   17.40
   8  -1   3  243.88   25.20
  -8  -1  -3  228.58   15.10
   8  -1   3  224.28   17.90
   8   1   4   18.00    6.30
   8   1   4   23.70    8.70
  -8   1  -4   20.50    7.20
  -8   1  -4   11.90    6.30
   8  -1   4   13.50    7.00
   8  -1   4    7.80    6.20
  -8  -1  -4   18.20    6.30
  -8  -1  -4   11.80    5.90
   8  -1   4   12.20    6.40
  -8   1  -5  607.34   27.80
  -8   1  -5  583.14   30.30
   8   1   5  572.54   32.80
   8   1   5  593.34   29.80
   8   1   5  605.24   24.40
  -8  -1  -5  591.44   24.60
   8  -1   5  601.14   32.80
   8  -1   5  578.14   20.90
   8  -1   5  604.54   27.60
  -8   1  -6  689.03   29.90
   8   1   6  640.94   36.30
   8   1   6  670.63   32.70
  -8   1  -6  625.34   37.70
   8  -1   6  657.63   22.30
   8  -1   6  647.44   34.20
  -8  -1  -6  627.64   32.00
   8  -1   6  632.64   36.10
  -8  -1  -6  748.73   26.40
   8   1   7   38.40   11.80
   8   1   7   58.69   12.40
   8  -1   7   57.49   11.50
   8  -1   7   50.49    6.50
   8  -1   7   53.89   14.00
   8   1   8   63.59   20.00
   8   1   8   74.69   13.70
  -8   1  -8  105.99   17.10
   8  -1   8   67.19   16.40
   8  -1   8   69.09   13.80
   8   1   9   35.50   10.80
   8   1   9   30.30   12.10
   8  -1   9   26.80   13.60
   8  -1   9   32.60   13.20
   8  -1   9   25.60   13.40
   8   1  10   49.20   14.10
  -8   1 -10   94.89   21.10
   8   1  10   77.39   12.50
   8  -1  10   54.69   15.50
   8  -2 -14  242.68   15.50
   8   2 -13    1.50    7.20
   8   2 -13    6.70    6.70
   8  -2 -13   14.50    6.70
   8   2 -12   16.60    8.00
   8   2 -12   13.50    8.10
   8  -2 -12   14.30    5.40
   8   2 -11  373.66   24.90
   8   2 -11  360.56   25.60
  -8  -2  11  356.66   27.20
   8  -2 -11  352.56   23.10
   8  -2 -11  460.95   27.10
   8  -2 -11  431.56   21.50
   8  -2 -11  341.37   17.70
   8   2 -10  251.07   23.40
   8   2 -10  280.47   22.00
   8   2 -10  282.67   20.90
   8  -2 -10  256.67   17.50
   8  -2 -10  289.27   21.00
   8  -2 -10  287.17   15.30
  -8  -2  10  300.17   23.40
   8   2  -9  333.37   24.70
   8   2  -9  364.26   24.30
   8   2  -9  354.56   25.10
   8   2  -9  383.96   23.60
   8  -2  -9  355.26   17.00
   8  -2  -9  376.26   24.80
   8  -2  -9  342.87   21.90
   8  -2  -9  365.36   23.60
  -8  -2   9  368.66   25.10
   8  -2  -9  410.56   23.90
   8   2  -8  860.31   38.50
   8   2  -8  893.61   38.60
  -8   2   8  920.41   37.00
   8   2  -8  925.31   37.30
   8   2  -8  863.01   43.60
   8   2  -8  918.31   40.40
  -8   2   8  905.01   30.00
   8  -2  -8  859.11   30.20
   8  -2  -8  889.61   36.80
   8  -2  -8  889.81   37.00
  -8  -2   8  910.31   40.10
   8  -2  -8  914.51   30.10
   8  -2  -8  908.81   46.50
   8   2  -7  281.67   19.10
   8   2  -7  283.77   20.40
   8   2  -7  326.57   22.10
  -8   2   7  315.17   20.80
   8   2  -7  277.87   20.40
   8  -2  -7  300.67   15.10
   8  -2  -7  288.67   14.50
  -8  -2   7  322.77   21.60
  -8  -2   7  278.27   18.80
   8  -2  -7  304.17   20.80
   8  -2  -7  321.67   20.40
  -8   2   6   29.30    9.20
  -8   2   6   26.70    6.20
   8   2  -6   27.80    8.10
   8   2  -6   25.30    7.60
   8   2  -6   18.40    6.70
   8   2  -6   19.90    6.90
   8  -2  -6   18.90    7.30
  -8  -2   6   29.10    7.70
  -8  -2   6   17.00    6.50
   8  -2  -6   23.90    5.80
   8  -2  -6   21.70    7.50
   8  -2  -6   32.40    5.70
  -8   2   5  818.02   28.20
   8   2  -5  864.51   35.30
   8   2  -5  831.52   33.70
  -8   2   5  814.82   33.30
   8   2  -5  887.01   34.60
   8  -2  -5  867.51   34.70
   8  -2  -5  861.41   29.30
  -8  -2   5  882.01   35.00
   8   2  -4 1462.75   48.70
  -8   2   4 1401.56   42.30
  -8   2   4 1451.85   47.70
   8   2  -4 1451.85   47.60
   8   2  -4 1406.06   46.30
  -8  -2   4 1399.96   47.50
   8  -2  -4 1458.75   48.40
   8  -2  -4 1468.15   43.40
  -8  -2   4 1398.16   46.30
   8   2  -3  824.82   31.00
   8   2  -3  872.91   34.00
  -8   2   3  854.51   33.60
  -8  -2   3  870.31   31.80
  -8  -2   3  833.42   32.40
   8  -2  -3  851.31   34.20
   8  -2  -3  880.01   30.80
   8   2  -2   21.80    5.90
   8   2  -2   39.10    7.70
   8   2  -2   35.20    6.90
  -8   2   2   41.00    7.10
  -8   2   2   23.50    5.90
  -8  -2   2   39.90    8.00
   8  -2  -2   49.10   10.40
  -8  -2   2   31.70    6.30
  -8  -2   2   50.29    7.90
   8  -2  -2   30.60    5.80
   8  -2  -2   31.80    7.20
   8   2  -1  527.75   24.00
  -8   2   1  519.65   23.10
   8   2  -1  522.55   24.60
  -8   2   1  534.35   25.20
   8   2  -1  531.65   20.70
  -8  -2   1  554.84   23.90
  -8  -2   1  529.85   24.50
   8  -2  -1  521.05   25.50
   8  -2  -1  526.25   21.40
  -8   2   0  451.45   22.30
   8   2   0  474.05   23.90
   8   2   0  494.45   22.20
  -8   2   0  456.35   23.10
   8   2   0  483.75   18.00
  -8  -2   0  475.15   22.00
   8  -2   0  460.85   21.20
   8  -2   0  485.15   24.40
  -8  -2   0  463.55   23.00
  -8   2  -1   55.29    8.70
  -8   2  -1   43.80    8.10
   8   2   1   48.40    8.80
   8   2   1   44.60    7.90
   8   2   1   41.50    5.20
   8  -2   1   38.50    7.90
   8  -2   1   35.50    8.60
  -8  -2  -1   59.79    8.60
  -8  -2  -1   41.20    8.10
  -8   2  -2   85.39   11.20
   8   2   2   74.99   10.60
  -8   2  -2   86.99   11.10
   8   2   2   92.19    9.50
  -8  -2  -2   89.29   15.20
  -8  -2  -2   93.59   11.40
   8  -2   2   87.69   11.50
   8  -2   2   84.19   12.90
  -8   2  -3  123.59   13.20
   8   2   3  151.08   11.40
   8   2   3  132.39   13.40
  -8   2  -3  118.79   13.10
   8   2   3  125.39   14.70
  -8  -2  -3  130.99   13.20
   8  -2   3  117.09   13.20
   8  -2   3  128.19   13.20
  -8  -2  -3  122.39   11.50
  -8   2  -4   53.49   10.80
   8   2   4   36.30   10.80
   8   2   4   41.10    7.90
  -8   2  -4   37.70   10.80
   8  -2   4   36.50   10.00
   8  -2   4   32.50    9.60
   8  -2   4   33.80    9.90
  -8  -2  -4   32.40    9.30
   8   2   5   36.70    9.00
   8   2   5   16.60    7.90
  -8   2  -5   35.60   10.20
   8   2   5   37.40    7.10
   8  -2   5   35.90   10.40
   8  -2   5   22.70    8.10
   8  -2   5   36.50    7.20
  -8  -2  -5   33.20   14.50
   8   2   6  223.28   21.60
  -8   2  -6  235.78   19.40
   8   2   6  219.88   17.90
  -8   2  -6  236.88   23.00
   8  -2   6  226.88   20.30
   8  -2   6  195.48   20.00
   8  -2   6  221.18   13.80
  -8  -2  -6  243.18   18.30
   8   2   7  106.89   16.80
   8   2   7  103.69   13.50
   8  -2   7  122.09   10.80
   8  -2   7   99.49   15.60
   8   2   8   54.99   10.90
   8   2   8   40.20   11.20
   8  -2   8   48.30    8.20
   8  -2   8   34.60   14.20
   8  -2   8   33.40   11.30
   8   2   9   32.50   12.60
   8   2   9   40.70   11.40
   8  -2   9   52.09    9.30
   8  -2   9   44.00   14.50
   8  -2   9   74.09   14.00
   8   2  10  151.28   22.30
   8   2  10  179.38   19.10
   8  -2  10  220.18   20.80
   8  -2  10  187.08   22.80
   8   3 -14  136.89   14.90
   8  -3 -14  130.19   13.40
   8   3 -13    1.20    8.00
   8   3 -13   15.40   11.40
  -8  -3  13   14.10    8.60
   8   3 -12   78.99   13.50
   8  -3 -12  103.59   20.20
   8  -3 -11  111.99   11.60
   8   3 -10  347.77   25.60
   8   3 -10  337.97   24.30
   8  -3 -10  373.16   23.40
   8  -3 -10  420.56   23.90
  -8  -3  10  342.37   26.00
  -8   3   9 1025.60   39.20
   8   3  -9  942.71   43.40
   8   3  -9  989.90   43.60
   8   3  -9  961.00   41.40
   8  -3  -9  963.00   39.00
   8  -3  -9  931.31   28.50
   8  -3  -9  908.91   30.70
   8  -3  -9  987.70   38.80
  -8  -3   9  980.30   44.10
   8  -3  -9  943.71   42.00
   8   3  -8  460.75   27.90
  -8   3   8  445.26   26.90
   8   3  -8  498.45   31.80
   8   3  -8  479.25   27.00
   8  -3  -8  451.65   26.60
   8  -3  -8  468.65   17.50
   8  -3  -8  462.25   17.10
  -8  -3   8  426.96   27.10
  -8  -3   8  546.25   36.90
   8  -3  -8  448.46   24.90
  -8   3   7  477.15   17.60
   8   3  -7  478.55   27.60
   8   3  -7  477.85   27.30
  -8   3   7  490.85   25.50
   8   3  -7  477.75   26.20
   8   3  -7  532.65   37.80
  -8  -3   7  462.25   26.10
   8  -3  -7  485.05   18.40
  -8  -3   7  462.95   26.10
   8  -3  -7  487.65   25.80
  -8  -3   7  497.05   27.70
  -8   3   6  975.30   38.00
  -8   3   6  942.01   29.70
   8   3  -6 1012.80   39.90
   8   3  -6  979.70   40.30
   8   3  -6 1023.20   39.50
   8   3  -6  971.70   40.40
  -8  -3   6 1017.10   40.50
   8  -3  -6  996.60   30.90
   8  -3  -6 1027.80   39.10
  -8  -3   6  971.30   38.50
   8   3  -5  911.01   37.50
  -8   3   5  877.01   28.80
   8   3  -5  919.71   36.10
   8   3  -5  882.01   37.20
  -8   3   5  913.71   36.00
   8   3  -5  950.20   37.60
  -8  -3   5  883.11   35.60
   8  -3  -5  913.41   36.60
  -8  -3   5  930.81   36.90
  -8   3   4  960.20   31.10
   8   3  -4  920.91   35.30
   8   3  -4  960.60   37.90
   8   3  -4  953.70   37.50
  -8   3   4  966.50   36.70
  -8  -3   4  898.61   36.00
   8  -3  -4  977.10   38.00
  -8  -3   4  962.10   36.40
   8   3  -3  170.88   14.50
   8   3  -3  156.78   13.40
  -8   3   3  165.18   14.10
  -8   3   3  169.88   14.20
   8   3  -3  175.88   14.80
   8  -3  -3  183.08   15.50
  -8  -3   3  166.98   14.10
  -8  -3   3  172.08   13.30
   8   3  -2 1648.24   49.20
   8   3  -2 1676.63   53.29
  -8   3   2 1581.14   52.69
  -8   3   2 1622.84   48.50
   8  -3  -2 1676.43   43.30
   8  -3  -2 1611.14   53.69
  -8  -3   2 1579.44   48.80
  -8  -3   2 1559.24   51.69
   8   3  -1  143.89   13.40
  -8   3   1  127.89   13.00
   8   3  -1  144.79   12.60
  -8   3   1  126.89   11.40
   8   3  -1  142.49   10.70
  -8  -3   1  128.09   10.10
   8  -3  -1  140.49   13.80
  -8  -3   1  130.69   12.60
   8  -3  -1  137.69    9.70
  -8   3   0  384.36   20.30
  -8   3   0  362.86   21.50
   8   3   0  403.56   21.80
   8   3   0  391.26   19.90
   8   3   0  376.46   16.20
  -8  -3   0  355.96   15.90
  -8  -3   0  381.56   21.10
   8  -3   0  361.26   22.00
   8  -3   0  369.26   18.20
   8   3   1   85.19   11.20
  -8   3  -1   67.29    9.70
   8   3   1   74.39    9.10
  -8   3  -1   56.99   10.20
   8  -3   1   72.69    9.20
   8  -3   1   59.79   10.70
  -8  -3  -1   80.69   10.80
   8   3   2  267.27   18.40
   8   3   2  246.18   14.70
  -8   3  -2  260.77   18.10
  -8   3  -2  210.78   17.00
   8  -3   2  259.37   18.90
  -8  -3  -2  254.57   17.70
   8  -3   2  248.28   18.60
  -8   3  -3  544.45   27.80
   8   3   3  545.05   21.90
   8   3   3  557.64   27.70
  -8   3  -3  552.64   28.40
  -8   3  -3  517.35   27.50
   8   3   3  529.05   30.20
   8  -3   3  543.95   28.50
   8  -3   3  559.74   30.60
  -8  -3  -3  511.45   26.50
   8  -3   3  534.05   27.70
  -8   3  -4  655.93   33.20
  -8   3  -4  636.84   31.70
   8   3   4  646.94   30.70
  -8   3  -4  613.94   30.40
   8  -3   4  606.84   33.50
  -8  -3  -4  670.83   30.30
   8   3   5  933.81   37.40
  -8   3  -5 1046.50   43.40
   8   3   5  962.40   45.50
   8  -3   5  979.60   44.80
   8  -3   5  980.30   41.40
  -8  -3  -5 1011.40   43.90
   8  -3   5 1007.20   44.70
   8   3   6  171.78   19.90
   8   3   6  192.38   16.00
  -8   3  -6  165.48   20.20
   8  -3   6  200.38   15.00
   8  -3   6  193.18   19.80
   8  -3   6  183.78   19.70
  -8  -3  -6  182.38   16.80
   8   3   7   31.40    8.40
  -8   3  -7   19.80   10.70
   8   3   7   39.30   13.60
   8  -3   7   33.10   11.00
   8  -3   7   37.70   10.70
   8  -3   7   32.30    7.30
   8   3   8  184.88   16.60
   8   3   8  195.48   21.90
   8  -3   8  162.18   21.40
   8  -3   8  132.69   20.30
   8  -3   8  174.68   14.20
   8   3   9   12.70    9.10
   8  -3   9   13.80    9.30
   8  -3   9   14.80    9.40
   8  -3   9   21.30    6.90
   8   3  10   97.79   18.20
   8  -3  10  130.99   12.10
   8  -3  10   95.59   18.70
   8  -3  10  119.99   18.90
   8   4 -13  279.47   24.80
   8   4 -13  235.68   24.60
   8  -4 -13  321.47   19.80
  -8  -4  13  270.77   25.80
   8   4 -12   20.10    8.60
  -8  -4  12   11.60    8.80
   8  -4 -12   17.00    8.80
   8   4 -11  604.04   35.40
   8   4 -11  659.93   40.80
   8  -4 -11  603.94   30.70
  -8  -4  11  599.54   37.50
   8  -4 -11  714.53   32.00
   8   4  -9   94.39   14.30
   8   4  -9   97.99   14.80
  -8  -4   9   91.19   14.60
   8  -4  -9  120.69   14.70
   8  -4  -9  117.39   14.50
   8   4  -8  106.09   15.10
   8   4  -8  112.79   14.00
  -8  -4   8  107.99   14.70
   8  -4  -8   98.79   13.40
   8   4  -7  248.08   19.80
  -8   4   7  227.98   18.80
   8   4  -7  235.58   19.50
   8   4  -7  225.58   19.70
   8   4  -7  231.28   19.10
  -8  -4   7  203.18   19.30
   8  -4  -7  210.58   17.40
  -8  -4   7  219.88   19.00
   8   4  -6   11.80    5.50
   8   4  -6    7.30    6.70
   8   4  -6    5.30    6.30
  -8  -4   6    3.20    5.30
   8  -4  -6   12.20    6.90
  -8   4   5  168.78   15.30
   8   4  -5  178.48   16.20
   8   4  -5  162.58   15.70
   8   4  -5  175.58   16.50
   8   4  -5  156.68   16.70
  -8   4   5  182.48   10.80
  -8  -4   5  159.38   15.20
   8  -4  -5  168.98   15.60
  -8  -4   5  187.58   15.80
   8   4  -4   48.90    9.20
  -8   4   4   45.60    9.20
   8   4  -4   49.99   10.90
   8   4  -4   66.59   11.00
   8   4  -4   54.29   10.20
  -8  -4   4   65.59   10.00
   8  -4  -4   61.79   10.70
  -8   4   3  977.10   38.50
   8   4  -3  969.60   36.10
   8   4  -3  994.30   38.80
   8   4  -3 1014.30   39.70
   8  -4  -3  998.20   39.80
  -8  -4   3  920.21   37.70
  -8  -4   3  956.70   37.70
   8   4  -2  277.27   19.20
  -8   4   2  283.37   18.80
   8   4  -2  250.37   16.20
   8   4  -2  293.77   18.70
  -8   4   2  290.37   16.40
  -8  -4   2  292.27   17.20
   8  -4  -2  265.37   19.50
  -8  -4   2  275.87   18.30
   8   4  -1  647.24   29.70
  -8   4   1  608.64   29.60
  -8   4   1  631.94   26.80
   8   4  -1  649.83   29.10
  -8  -4   1  609.14   28.80
  -8  -4   1  625.94   25.30
   8  -4  -1  676.13   31.50
   8  -4  -1  600.74   21.80
   8   4   0  534.35   26.70
  -8   4   0  546.25   25.50
  -8   4   0  499.45   26.80
   8   4   0  556.64   25.00
  -8  -4   0  510.75   26.00
   8  -4   0  547.75   28.60
  -8  -4   0  519.55   21.30
   8  -4   0  543.85   22.10
  -8   4  -1  278.87   19.90
   8   4   1  307.27   17.40
  -8   4  -1  292.17   19.10
   8  -4   1  275.77   16.80
   8  -4   1  281.87   20.80
  -8  -4  -1  321.97   20.60
  -8  -4  -1  296.97   13.90
  -8   4  -2  349.37   20.90
   8   4   2  330.47   17.20
  -8   4  -2  325.77   21.20
   8   4   2  351.56   21.70
  -8   4  -2  337.37   23.00
   8  -4   2  346.67   23.40
  -8  -4  -2  329.87   21.00
   8  -4   2  359.36   24.20
   8   4   3  991.70   39.90
   8   4   3 1033.50   33.00
  -8   4  -3  987.10   40.30
  -8   4  -3  992.20   41.00
  -8   4  -3  984.90   43.50
   8  -4   3 1017.80   40.70
   8  -4   3 1072.29   45.30
   8  -4   3 1019.00   43.00
  -8  -4  -3  996.60   39.70
  -8   4  -4  122.19   13.90
   8   4   4  132.79   16.50
   8   4   4  103.59   13.30
  -8   4  -4  124.99   15.90
  -8  -4  -4  133.39   14.80
   8  -4   4  105.09   15.50
   8  -4   4  123.09   14.50
   8   4   5  454.55   30.60
  -8   4  -5  476.45   28.10
   8   4   5  476.25   23.60
   8  -4   5  474.05   25.10
  -8  -4  -5  476.45   26.40
   8  -4   5  463.85   28.80
   8  -4   5  451.65   30.20
   8   4   6   43.80   11.50
   8   4   6   70.69    9.70
  -8  -4  -6   42.20   10.20
   8  -4   6   54.79   10.40
   8  -4   6   47.60   12.00
   8  -4   6   47.60   13.50
   8   4   7   94.39   11.90
   8  -4   7   91.39   17.70
   8  -4   7  101.09   16.70
   8  -4   7   73.69   11.50
   8   4   8   50.89   13.10
   8  -4   8   81.59   16.50
   8  -4   8   94.49   20.70
   8  -4   8   57.19   10.70
   8   4   9  134.99   17.30
   8   4   9  120.99   13.10
   8  -4   9  125.99   18.00
   8  -4   9   97.79   13.10
   8   4  10  132.19   13.90
   8   4  10   90.59   16.90
   8   5 -13  143.99   14.60
   8  -5 -13  107.59   11.90
   8   5 -12  151.98   20.60
   8   5 -12  167.88   20.50
  -8  -5  12  165.88   21.20
   8  -5 -12  171.98   14.70
   8   5 -11   81.39   17.00
   8   5 -11   61.39   14.10
   8  -5 -11   74.49   12.00
  -8  -5  11   52.99   13.60
   8   5 -10   60.79   20.00
   8   5 -10   82.09   14.50
  -8  -5  10   77.19   17.30
   8  -5 -10   64.69   11.60
   8   5  -9   41.80   12.20
   8   5  -9   55.89   13.50
   8  -5  -9   42.30   10.60
  -8  -5   9   25.60    9.60
  -8   5   8  368.86   23.40
   8   5  -8  335.07   24.60
   8   5  -8  324.67   25.80
  -8  -5   8  348.67   25.70
   8  -5  -8  315.67   21.90
   8   5  -7  309.57   22.30
   8   5  -7  325.97   22.10
   8   5  -7  255.97   22.20
   8   5  -7  257.17   21.50
   8  -5  -7  248.38   19.80
  -8  -5   7  276.07   22.10
   8   5  -6  563.34   31.80
   8   5  -6  591.84   30.60
   8   5  -6  611.04   30.40
   8   5  -6  610.24   31.80
  -8   5   6  577.54   29.90
  -8  -5   6  570.54   31.40
   8   5  -5  153.58   16.50
   8   5  -5  147.99   15.70
  -8   5   5  146.89    9.50
   8   5  -5  134.79   15.30
  -8   5   5  143.99   15.50
   8   5  -5  137.59   15.60
   8  -5  -5  151.08   15.80
  -8  -5   5  141.79   15.30
  -8   5   4   69.69    8.50
  -8   5   4   62.99   11.10
   8   5  -4   69.99   11.80
   8   5  -4   67.49   11.70
   8  -5  -4   66.39   11.70
  -8  -5   4   68.99   10.90
  -8  -5   4   78.79   12.10
   8   5  -3  143.89   14.40
   8   5  -3  137.99   13.60
   8   5  -3  131.49   14.60
  -8   5   3  114.39   14.20
   8   5  -3  150.98   15.30
  -8   5   3  149.69   11.20
  -8  -5   3  138.19   17.80
   8  -5  -3  122.29   14.80
  -8  -5   3  138.09   13.50
   8   5  -2   33.00    8.80
  -8   5   2   28.60    7.40
  -8   5   2   32.10    9.20
   8   5  -2   29.40    7.60
   8   5  -2   28.50    8.90
  -8  -5   2   21.10    7.70
   8  -5  -2   21.20    7.80
  -8  -5   2   17.60    5.90
  -8   5   1  844.92   43.10
   8   5  -1  960.90   36.70
   8   5  -1  902.41   38.00
  -8   5   1  907.31   34.30
  -8  -5   1  898.11   33.60
   8  -5  -1  867.11   39.20
  -8  -5   1  892.41   36.80
  -8   5   0 1410.46   54.59
   8   5   0 1490.05   51.79
   8   5   0 1550.24   54.99
  -8   5   0 1413.66   48.80
  -8  -5   0 1428.86   50.59
  -8  -5   0 1535.95   45.80
   8  -5   0 1425.06   53.69
   8  -5   0 1390.96   43.70
   8   5   1 1562.54   48.50
  -8   5  -1 1462.55   54.49
   8   5   1 1509.05   52.49
  -8   5  -1 1497.25   47.80
  -8   5  -1 1462.85   51.49
  -8  -5  -1 1564.74   44.70
   8  -5   1 1501.35   47.90
   8  -5   1 1487.35   55.79
  -8  -5  -1 1484.75   52.19
   8  -5   1 1526.55   56.09
  -8   5  -2  315.17   24.10
   8   5   2  309.07   17.40
  -8   5  -2  301.87   22.40
  -8   5  -2  317.47   19.90
   8  -5   2  321.07   23.80
   8  -5   2  308.37   19.50
  -8  -5  -2  308.87   21.00
  -8  -5  -2  319.47   14.30
  -8   5  -3   58.69   12.00
   8   5   3   68.09    8.30
   8   5   3   58.09   11.30
  -8  -5  -3   66.89   21.30
   8  -5   3   55.19   11.40
   8  -5   3   40.10   11.50
   8   5   4  508.45   32.30
   8   5   4  521.65   28.10
  -8   5  -4  558.04   30.60
   8  -5   4  525.55   32.40
   8  -5   4  553.14   30.10
  -8  -5  -4  522.85   28.10
   8   5   5  348.97   27.30
   8   5   5  335.97   22.40
   8   5   5  333.27   18.60
  -8   5  -5  418.26   25.70
   8  -5   5  352.06   25.20
  -8  -5  -5  394.16   22.90
   8  -5   5  349.27   23.40
   8  -5   5  349.37   27.60
   8   5   6  260.07   24.90
   8   5   6  281.57   21.60
   8  -5   6  279.27   24.10
   8  -5   6  326.87   21.30
  -8  -5  -6  283.37   21.30
   8   5   7   66.99   14.40
   8  -5   7   78.99   10.90
   8  -5   7   41.00   14.30
   8  -5   7   63.09   15.20
   8   5   8   85.99   11.50
   8   5   8   84.49   20.40
   8  -5   8   78.99   11.80
   8  -5   8   80.59   14.70
   8   5   9  266.77   26.90
   8   5   9  355.16   20.10
   8  -5   9  299.87   26.80
   8  -5   9  348.07   20.80
   8  -5   9  317.07   28.00
   8  -6 -12   64.59   11.90
   8   6 -11  274.37   27.20
   8   6 -11  281.87   26.90
   8  -6 -11  360.06   21.40
  -8  -6  11  284.97   27.20
   8   6 -10   81.29   16.40
   8   6 -10   85.49   17.40
   8  -6 -10   66.89   13.00
  -8  -6  10  110.59   16.30
   8  -6 -10  111.79   13.70
   8   6  -9   48.80   14.00
   8   6  -9   80.89   18.30
  -8  -6   9   83.19   17.10
   8  -6  -9   84.59   13.20
   8   6  -8    6.90    9.80
   8   6  -8   18.30    9.50
   8  -6  -8   18.70    7.20
  -8  -6   8    5.30    7.60
   8   6  -7  120.49   17.30
   8   6  -7  158.28   18.20
  -8  -6   7  156.98   18.10
   8  -6  -7  145.79   16.20
   8   6  -6  205.08   19.40
   8   6  -6  226.58   21.00
  -8   6   6  240.28   20.60
   8  -6  -6  215.08   18.80
  -8  -6   6  209.38   19.50
  -8   6   5  303.57   13.00
   8   6  -5  266.17   21.90
  -8   6   5  272.87   21.90
   8   6  -5  287.57   22.90
   8   6  -5  281.47   22.40
   8  -6  -5  264.77   21.20
  -8  -6   5  282.27   21.80
  -8   6   4  178.88   15.10
   8   6  -4  146.29   16.30
   8   6  -4  135.59   15.80
  -8   6   4  164.68   11.10
  -8  -6   4  140.69   15.30
  -8  -6   4  189.58   15.10
   8  -6  -4  141.19   16.40
  -8   6   3  108.19   13.70
   8   6  -3  130.49   14.80
   8   6  -3  103.49   14.70
   8   6  -3  108.69   14.10
  -8   6   3  130.39    9.90
  -8  -6   3  119.99   15.10
   8  -6  -3  109.69   14.90
  -8  -6   3  104.89   13.20
  -8   6   2   17.10    9.10
   8   6  -2   41.90   11.00
   8   6  -2   34.40    9.70
   8   6  -2   38.30   10.50
  -8  -6   2   40.20    9.70
   8  -6  -2   27.40    8.70
  -8  -6   2   25.10    7.50
   8   6  -1  106.99   14.10
   8   6  -1  147.39   13.70
  -8   6   1  164.58   13.10
  -8   6   1  152.68   15.50
   8   6  -1  144.49   14.70
  -8  -6   1  135.49   16.30
   8  -6  -1  123.19   15.30
  -8  -6   1  126.89   13.00
   8  -6  -1  132.89   16.20
   8   6   0  290.57   19.30
  -8   6   0  274.97   16.10
   8   6   0  321.77   18.50
   8   6   0  278.67   20.90
  -8   6   0  301.37   18.90
   8  -6   0  324.17   23.20
  -8  -6   0  331.97   21.80
   8  -6   0  305.77   23.30
  -8  -6   0  288.07   19.20
   8   6   1   79.29   11.40
   8   6   1   61.99   11.90
  -8  -6  -1   80.49    9.40
   8  -6   1   69.89   13.40
  -8  -6  -1   75.79   13.90
   8   6   2   90.19   13.20
   8   6   2  101.29   11.50
   8  -6   2  102.29   15.20
  -8  -6  -2   91.79    9.20
  -8  -6  -2  115.39   14.90
   8   6   3    2.80    5.70
   8   6   3   -2.80    4.80
  -8  -6  -3   15.80    7.20
  -8  -6  -3    0.80    3.30
   8  -6   3   -1.00    5.60
   8   6   4   69.29   11.60
  -8  -6  -4   74.39   13.40
   8  -6   4   58.39   13.50
   8   6   5   30.50   11.30
   8   6   5   41.50    7.70
   8   6   5   61.09    9.10
   8  -6   5   26.10   16.70
   8  -6   5   38.10   10.40
  -8  -6  -5   36.00   10.10
   8  -6   5   42.90   11.60
   8   6   6   46.50   13.20
   8   6   6   37.10    7.50
   8  -6   6   37.60   12.50
   8   6   7   29.30   11.50
   8  -6   7   37.80   11.70
   8  -6   7   27.40   12.80
   8  -6   7   29.40    9.60
   8   6   8   13.30    7.60
   8  -6   8    2.70    8.50
   8   7 -10  145.99   19.20
   8  -7 -10  175.28   15.40
  -8  -7  10  123.49   19.00
   8   7  -9  362.76   28.70
   8  -7  -9  412.46   24.10
  -8  -7   9  402.96   30.40
   8   7  -8  373.66   28.40
  -8  -7   8  355.46   28.10
   8  -7  -8  402.46   25.00
   8   7  -7   64.89   23.90
  -8  -7   7   33.50   10.00
   8  -7  -7   59.49   12.00
   8   7  -6  147.29   18.00
  -8  -7   6  135.59   17.70
   8  -7  -6  150.78   17.10
   8   7  -5   24.10   10.00
  -8   7   5   39.50   10.00
  -8  -7   5   25.40    9.60
   8  -7  -5   22.70    8.40
   8   7  -4   19.80    8.80
  -8   7   4   14.80    6.10
  -8  -7   4    3.20    6.50
   8  -7  -4   24.10   10.40
   8   7  -3   46.50   11.20
   8   7  -3   46.80   12.30
  -8   7   3   35.70    8.20
  -8  -7   3   36.80    9.80
   8  -7  -3   33.50    9.40
   8  -7  -3   27.30    9.50
  -8   7   2  273.97   16.80
   8   7  -2  268.47   21.30
   8   7  -2  302.37   20.30
   8   7  -2  221.98   19.50
  -8  -7   2  271.97   20.40
   8  -7  -2  263.27   20.90
   8  -7  -2  230.98   21.30
   8   7  -1   43.10   11.60
   8   7  -1   48.80   10.90
   8   7  -1   45.00   10.80
  -8   7   1   43.30    9.50
   8  -7  -1   23.50    9.40
  -8  -7   1   45.20   13.90
   8  -7  -1   57.79   11.40
   8   7   0  225.58   17.10
  -8   7   0  256.17   14.50
   8   7   0  185.68   17.20
   8   7   0  219.68   18.30
  -8   7   0  262.57   19.60
  -8  -7   0  205.28   16.70
   8  -7   0  229.18   20.40
  -8  -7   0  221.88   21.30
   8   7   1   62.29   11.50
   8   7   1   69.29   10.60
  -8   7  -1   69.49   11.50
   8  -7   1   63.79   14.50
  -8  -7  -1   54.99    9.40
   8   7   2   62.69   12.30
   8   7   2   92.29   12.90
  -8  -7  -2   85.09   10.20
   8  -7   2   73.99   14.70
   8   7   3  294.17   20.70
  -8   7  -3  351.16   23.50
   8  -7   3  282.07   24.90
  -8  -7  -3  259.97   15.20
  -8  -7  -3  286.87   25.60
   8   7   4  155.88   10.10
   8   7   5   12.30    8.20
   8   7   5   18.10    6.30
   8  -7   5    4.50    6.70
   8  -7   5    7.10    6.90
   8   7   6  138.69   18.10
   8  -7   6  116.29   16.60
   8  -7   6   93.99   18.70
   8  -7   7  114.39   15.60
   8  -7   7  110.49   20.90
   8   8  -9   76.89   14.40
  -8  -8   9   79.89   13.50
  -8  -8   8  197.88   22.60
   8  -8  -8  205.98   18.80
   8  -8  -8  244.38   15.00
   8  -8  -8  253.07   17.20
   8   8  -7   51.99   15.20
   8  -8  -7   69.09   12.70
  -8  -8   7   39.30   12.50
   8   8  -6   14.50    7.90
   8  -8  -6    5.30    7.00
  -8  -8   6    5.20    8.00
   8   8  -5   65.09   18.20
  -8  -8   5   52.99   13.20
   8  -8  -5   53.29   10.50
   8  -8  -5   72.29   15.00
   8   8  -3   75.89   15.00
   8   8  -3   80.09   13.70
  -8  -8   3   72.49   14.00
   8   8  -2   26.00   10.60
  -8   8   2   37.50    7.90
   8  -8  -2   37.70   10.20
  -8   8   1   53.49   10.20
   8   8  -1   43.30   10.00
  -8  -8   1   45.30   11.90
   8  -8  -1   63.19   13.00
   8   8   0  242.28   18.60
   8   8   0  227.28   20.60
  -8  -8   0  243.98   19.00
   8  -8   0  234.18   20.80
   8   8   1  208.18   18.40
   8   8   1  166.18   16.30
   8  -8   1  175.88   19.70
  -8  -8  -1  169.28   15.60
  -8   8  -2  145.99   17.40
   8   8   2  111.39   13.40
   8   8   2  155.38   14.30
   8  -8   2  138.89   17.90
  -8  -8  -2  178.08   13.80
   8   8   3   52.09    9.30
   8   8   4   42.50   10.40
   8  -8   4   39.80   14.30
  -8  -8  -4   40.00    7.20
   8   8   5   32.40   10.30
   8  -8   5   26.40   11.30
   8  -8   5   17.00   12.40
   8   8   6  135.59   21.10
   8  -8   6  201.48   23.10
   8  -8   6  179.58   19.00
   8   9  -8  138.69   19.40
  -8  -9   8  102.89   18.20
   8   9  -7  178.48   18.30
   8   9  -6   32.20   12.60
  -8  -9   6   23.10   10.60
  -8  -9   5   27.80   10.50
   8  -9  -5   37.20   10.10
  -8   9   4  110.79   11.70
   8   9  -4  131.09   16.50
  -8  -9   4   93.69   18.20
   8  -9  -4   89.29   13.20
  -8   9   3   90.99   12.10
   8   9  -2    0.00    9.10
   8   9  -2   15.50    7.10
  -8  -9   2    1.80    7.10
   8  -9  -2    5.00    6.50
   8   9  -1  135.59   18.10
   8   9  -1  115.79   15.20
  -8   9   1  142.89   16.90
  -8  -9   1  100.39   14.60
   8  -9  -1  109.79   15.60
   8   9   0  149.88   16.40
   8   9   0  104.89   15.10
   8  -9   0  138.79   17.70
  -8  -9   0   92.99   15.00
   8   9   1  153.28   16.10
   8   9   1  120.29   16.20
  -8  -9  -1  155.38   16.00
   8  -9   1  199.98   19.70
   8   9   2   86.19   12.50
   8   9   2   63.49   11.20
  -8  -9  -2   47.90   10.70
   8  -9   2   56.69   14.70
   8   9   4  341.77   23.40
   8  -9   4  341.67   28.30
   8  -9   4  362.56   30.40
   8  10  -5  189.68   19.30
  -8 -10   5  171.88   21.20
   8  10  -4  131.69   19.00
  -8 -10   4  102.79   19.80
   8  10  -3  355.96   25.40
   8  10  -3  258.57   25.30
  -8  10   3  313.67   19.20
  -8 -10   3  295.97   26.50
   8 -10  -3  394.26   23.20
   8  10  -2  453.75   29.90
  -8  10   2  375.16   22.70
  -8  10   2  389.56   25.20
   8  10  -2  364.16   28.30
  -8 -10   2  411.56   28.10
   8 -10  -2  485.75   26.70
  -8  10   1  215.38   18.80
   8  10  -1  226.58   19.10
   8 -10  -1  225.08   18.50
  -8  10   0  259.37   20.50
   8  10   0  245.78   20.90
   8  10   0  242.58   19.90
  -8 -10   0  239.48   19.70
   8 -10   0  248.98   22.30
   8  10   1   79.49   12.40
  -8 -10  -1   64.49   12.00
   8 -10   1   43.90   11.20
   9   0 -14  186.98   14.60
   9   0 -13    2.70    7.10
   9   0 -13    5.70    8.00
   9   0 -12  102.29   15.50
   9   0 -12  100.69   13.10
   9   0 -11   -7.90    4.70
   9   0 -11   12.80    6.00
   9   0 -10  448.96   27.80
   9   0 -10  478.65   26.20
   9   0 -10  470.85   24.30
  -9   0   9    9.50    6.00
   9   0  -9   14.50    5.40
   9   0  -9    1.10    4.60
   9   0  -9   10.20    6.90
   9   0  -9   -1.10    6.00
  -9   0   8 2173.58   63.49
   9   0  -8 2165.18   69.99
   9   0  -8 2145.99   71.19
   9   0  -8 2063.59   64.39
   9   0  -8 2192.18   64.29
   9   0  -8 2145.29   69.19
   9   0  -7    1.10    4.30
  -9   0   7   -6.20    4.40
   9   0  -7    4.20    5.00
   9   0  -7   -0.60    5.60
  -9   0   6   51.89   10.10
   9   0  -6   78.09   11.60
  -9   0   6   83.99   11.80
   9   0  -6   62.39   10.90
   9   0  -6   75.69   13.00
   9   0  -5   -2.40    4.50
   9   0  -5   -2.00    3.60
  -9   0   5   -3.50    3.60
   9   0  -5    4.40    4.70
  -9   0   5   -6.70    4.60
   9   0  -4 1111.19   39.50
  -9   0   4 1045.90   40.10
   9   0  -4 1115.69   41.50
   9   0  -4 1152.98   41.10
  -9   0   4 1084.19   37.80
   9   0  -3   -2.50    6.50
  -9   0   3    0.00    2.90
  -9   0   3   -1.00    4.10
   9   0  -3    2.10    3.80
   9   0  -3    1.80    4.00
   9   0  -2  108.69   11.80
   9   0  -2   99.29   10.10
  -9   0   2  103.39   10.60
   9   0  -2  111.89   11.80
  -9   0   2   98.29   11.30
  -9   0   1   -1.90    3.80
   9   0  -1    0.40    3.70
   9   0  -1   -1.60    2.90
   9   0  -1   -1.70    4.00
  -9   0   1    1.60    3.90
   9   0   0  205.18   12.40
  -9   0   0  188.48   14.90
  -9   0   0  200.78   14.90
   9   0   0  227.78   16.50
   9   0   0  194.68   15.20
   9   0   0  200.28   18.20
  -9   0  -1   -1.20    4.00
   9   0   1    5.90    5.40
   9   0   1    2.10    7.80
  -9   0  -1    2.40    3.70
   9   0   1    2.40    4.80
   9   0   1   -0.10    3.40
   9   0   2  811.12   37.20
  -9   0  -2  773.22   31.30
  -9   0  -2  742.93   32.80
   9   0   2  781.12   35.20
  -9   0  -3    3.00    5.70
   9   0   3   -6.20    3.60
   9   0   3    0.60    4.80
  -9   0  -3   -5.60    4.80
  -9   0  -4  161.78   16.10
   9   0   4  159.98   14.10
  -9   0  -4  156.78   14.80
   9   0   4  176.48   18.20
   9   0   5   -2.00    5.30
   9   0   5   -3.40    4.70
   9   0   5    0.90    5.10
  -9   0  -6  428.56   21.60
   9   0   6  309.67   25.80
   9   0   6  348.17   24.90
   9   0   8  141.29   20.10
   9   0   8  146.89   17.50
   9   0   9   20.40    7.00
   9   0   9   -2.50    8.00
   9   0  10   54.99   11.30
   9   1 -14   96.39   14.10
   9   1 -14   85.99   14.50
   9   1 -13   68.89   16.40
   9  -1 -13   69.79   10.50
   9  -1 -13   56.29   13.40
   9   1 -12  141.39   15.10
   9   1 -12  112.29   16.50
   9  -1 -12  146.19   24.40
   9  -1 -12  117.19   12.20
   9  -1 -12  123.09   15.10
   9   1 -11  121.19   14.90
   9   1 -11  159.78   17.40
   9  -1 -11  148.49   16.60
   9  -1 -11  161.18   13.80
   9   1 -10   79.19   13.20
   9   1 -10   59.99   11.80
   9  -1 -10   64.69   10.40
   9  -1 -10  103.49   18.20
   9  -1 -10   68.39   12.50
   9   1  -9   98.19   14.90
   9   1  -9   87.09   13.70
   9   1  -9   83.29   11.80
   9   1  -9   72.39   12.70
   9  -1  -9   88.59   18.50
   9  -1  -9  112.39   13.20
   9  -1  -9   73.89   10.00
   9  -1  -9   69.19   12.40
   9  -1  -9   95.09   11.70
  -9   1   8  785.12   29.60
   9   1  -8  823.42   34.00
   9   1  -8  789.42   36.50
  -9   1   8  763.32   35.80
   9   1  -8  770.42   36.40
   9   1  -8  823.02   38.50
   9  -1  -8  820.72   30.80
   9  -1  -8  822.42   36.70
   9  -1  -8  761.62   35.20
   9  -1  -8  774.52   30.40
  -9  -1   8  757.62   32.80
   9   1  -7   64.19   11.90
  -9   1   7   50.49    9.80
   9   1  -7   72.79   14.00
   9   1  -7   69.29   10.60
  -9   1   7  105.59   16.70
   9  -1  -7   75.89   11.70
   9  -1  -7   70.59   12.10
   9  -1  -7   59.19    8.60
  -9  -1   7   76.29    9.50
   9  -1  -7   73.99    9.70
   9   1  -6  456.65   25.40
   9   1  -6  443.46   24.60
   9   1  -6  462.75   23.60
  -9   1   6  464.65   25.30
  -9   1   6  453.55   21.00
   9  -1  -6  458.35   25.50
   9  -1  -6  447.66   25.00
   9  -1  -6  466.85   21.90
   9   1  -5  326.57   19.70
   9   1  -5  306.27   20.50
   9   1  -5  330.57   19.70
  -9   1   5  328.57   20.10
  -9   1   5  333.17   17.80
   9  -1  -5  310.47   19.80
   9  -1  -5  314.57   17.60
  -9  -1   5  305.07   18.60
  -9  -1   5  302.87   20.40
   9  -1  -5  334.97   21.10
   9   1  -4  578.34   28.00
  -9   1   4  603.64   27.80
   9   1  -4  574.24   26.60
   9   1  -4  568.14   26.00
  -9   1   4  606.04   25.10
   9  -1  -4  592.34   27.00
  -9  -1   4  586.44   26.30
   9  -1  -4  625.14   26.10
  -9  -1   4  563.34   27.50
   9  -1  -4  600.74   28.50
   9   1  -3  370.96   21.00
  -9   1   3  333.67   18.10
  -9   1   3  351.36   20.60
   9   1  -3  339.27   18.30
   9   1  -3  359.86   20.30
  -9  -1   3  336.47   20.50
   9  -1  -3  363.36   19.40
   9  -1  -3  360.76   21.10
  -9  -1   3  357.86   19.80
  -9   1   2  781.22   30.80
   9   1  -2  835.12   33.60
   9   1  -2  851.91   33.60
   9   1  -2  844.52   30.80
  -9   1   2  777.52   32.80
  -9  -1   2  837.42   33.00
  -9  -1   2  814.32   32.10
   9  -1  -2  871.21   39.90
   9  -1  -2  820.12   33.90
  -9   1   1  266.97   17.70
  -9   1   1  275.27   17.10
   9   1  -1  257.57   14.10
   9   1  -1  282.67   18.30
   9  -1  -1  276.97   18.30
  -9  -1   1  287.27   17.70
   9  -1  -1  268.57   17.40
   9  -1  -1  272.37   16.60
  -9  -1   1  262.27   16.90
   9   1   0  250.17   17.80
  -9   1   0  260.57   16.40
  -9   1   0  254.67   16.60
   9   1   0  258.97   17.60
   9   1   0  260.47   13.20
  -9  -1   0  250.87   16.70
   9  -1   0  261.87   17.00
   9  -1   0  259.67   17.80
  -9   1  -1  627.94   28.50
   9   1   1  594.84   20.90
   9   1   1  647.14   30.70
   9   1   1  667.23   27.60
   9   1   1  633.24   29.70
  -9  -1  -1  627.64   28.80
   9  -1   1  632.54   28.90
  -9  -1  -1  621.34   27.00
   9   1   2  478.45   27.20
   9   1   2  412.76   15.10
  -9   1  -2  483.05   25.40
  -9   1  -2  475.45   24.50
   9   1   2  488.05   26.00
   9   1   2  463.65   22.60
  -9  -1  -2  462.65   22.60
   9  -1   2  477.35   24.50
  -9  -1  -2  437.46   24.40
   9  -1   2  477.15   25.70
   9   1   3   82.59   13.30
  -9   1  -3   97.99   17.70
  -9   1  -3   85.79   12.10
   9   1   3   99.29   11.20
   9  -1   3  109.29   12.50
   9  -1   3   91.09   12.90
  -9  -1  -3   90.69   12.60
  -9  -1  -3   90.39   12.30
  -9   1  -4  839.22   36.80
   9   1   4  813.72   39.60
   9   1   4  847.82   32.00
  -9   1  -4  815.42   35.00
   9  -1   4  849.12   34.60
   9  -1   4  831.32   38.70
  -9  -1  -4  826.92   36.50
  -9  -1  -4  850.51   32.00
   9  -1   4  797.92   38.60
   9   1   5  192.98   19.90
   9   1   5  149.59   15.80
   9   1   5  171.88   13.40
  -9   1  -5  136.49   17.50
   9  -1   5  162.58   10.40
   9  -1   5  159.28   17.60
  -9  -1  -5  179.58   14.90
  -9  -1  -5  159.38   16.40
   9  -1   5  174.98   17.70
   9  -1   5  178.08   15.30
  -9   1  -6  928.11   37.60
   9   1   6  862.71   44.80
   9   1   6  925.41   41.10
   9  -1   6  909.81   27.70
  -9  -1  -6 1032.10   34.10
   9  -1   6  926.51   45.50
   9  -1   6  862.21   42.50
   9   1   7   59.09   11.00
   9  -1   7   52.19   11.10
   9   1   8  105.39   18.30
   9   1   8  116.59   15.10
   9  -1   8  132.39   18.20
   9  -1   8  142.29   19.00
   9   1   9  104.39   14.00
   9  -1   9  112.29   14.60
   9   1  10  228.58   18.30
   9   1  10  172.98   21.50
   9  -1  10  193.38   20.30
   9  -1  10  175.18   25.20
   9   2 -14  104.89   14.70
   9   2 -14  103.69   14.10
   9  -2 -14  146.79   16.30
   9   2 -13  174.48   18.50
   9   2 -13  205.28   20.00
   9  -2 -13  233.28   17.80
   9  -2 -13  234.28   16.00
   9   2 -12  130.39   17.10
   9   2 -12  156.88   15.80
   9  -2 -12  131.69   15.60
   9  -2 -12  158.88   11.40
   9   2 -11   25.70   11.00
   9   2 -11   25.00    9.10
   9  -2 -11   15.40    8.50
   9  -2 -11   16.90    6.10
   9   2 -10   42.40   12.80
   9   2 -10   39.90   10.30
   9   2 -10   61.69   12.70
  -9  -2  10   30.80   10.20
   9  -2 -10   28.50    8.60
   9  -2 -10   41.40    7.60
   9   2  -9  603.64   48.50
   9   2  -9  512.55   41.70
   9   2  -9  641.84   31.70
   9   2  -9  622.54   33.20
  -9   2   9  635.94   38.50
   9  -2  -9  656.53   32.10
   9  -2  -9  618.94   33.90
   9  -2  -9  632.14   24.90
   9  -2  -9  652.93   44.80
  -9  -2   9  676.53   35.50
   9   2  -8  258.77   20.50
  -9   2   8  258.77   21.10
   9   2  -8  248.68   21.90
   9   2  -8  277.27   21.30
   9   2  -8  283.47   20.30
   9  -2  -8  273.57   15.40
   9  -2  -8  249.48   14.50
  -9  -2   8  282.17   21.70
   9  -2  -8  296.57   21.70
  -9  -2   8  273.67   19.90
   9  -2  -8  272.07   20.30
  -9  -2   8  272.97   20.00
   9   2  -7   20.50    8.20
  -9   2   7   31.40   11.60
   9   2  -7    2.90   12.70
   9   2  -7    9.00    6.10
   9   2  -7   17.60    7.60
  -9   2   7   28.40   10.60
   9  -2  -7    9.10    6.70
  -9  -2   7   20.40    6.90
   9  -2  -7   21.30    5.80
   9  -2  -7   31.30   12.50
   9  -2  -7   21.60    6.50
  -9  -2   7   20.60    7.70
   9   2  -6  835.22   36.80
   9   2  -6  858.61   35.80
  -9   2   6  827.42   35.40
   9   2  -6  795.32   35.50
  -9   2   6  927.11   33.00
   9  -2  -6  850.11   27.40
   9  -2  -6  828.82   36.50
  -9  -2   6  874.01   37.00
   9  -2  -6  903.11   31.20
   9  -2  -6  845.32   36.30
  -9   2   5  305.87   19.40
  -9   2   5  271.47   15.80
   9   2  -5  300.27   19.40
   9   2  -5  274.67   19.60
   9   2  -5  281.27   19.10
   9  -2  -5  282.87   19.70
  -9  -2   5  271.67   18.70
   9  -2  -5  284.77   16.20
  -9  -2   5  258.27   18.10
   9   2  -4   54.09   10.00
  -9   2   4   98.19   11.60
   9   2  -4   80.19   11.70
   9   2  -4   63.29   10.80
  -9   2   4   82.79    9.40
  -9  -2   4  103.99   11.30
   9  -2  -4   93.89   12.10
  -9  -2   4   73.59    9.90
   9  -2  -4   79.19    9.50
   9   2  -3  314.47   19.90
   9   2  -3  326.57   18.10
  -9   2   3  308.67   19.60
   9   2  -3  317.77   20.00
  -9   2   3  326.17   17.50
   9  -2  -3  338.97   21.20
   9  -2  -3  347.47   18.60
  -9  -2   3  314.67   19.50
   9  -2  -3  344.67   15.60
   9   2  -2   43.70    8.00
   9   2  -2   48.50    9.70
  -9   2   2   54.59   11.10
  -9   2   2   48.50    8.50
   9   2  -2   58.19    9.60
  -9  -2   2   56.09   11.30
   9  -2  -2   41.60    8.70
   9  -2  -2   54.39    7.30
  -9  -2   2   51.19    9.40
   9   2  -1 1149.48   53.29
   9   2  -1 1064.29   34.20
   9   2  -1 1065.99   40.50
  -9   2   1 1062.79   38.10
  -9   2   1 1056.69   40.20
  -9  -2   1 1062.19   38.60
   9  -2  -1 1053.29   41.00
   9  -2  -1 1084.39   36.20
  -9  -2   1 1054.49   39.60
   9   2   0  293.37   17.90
  -9   2   0  269.47   18.80
   9   2   0  274.47   13.60
   9   2   0  282.07   19.20
  -9   2   0  288.77   18.10
  -9  -2   0  268.07   18.40
   9  -2   0  287.57   19.70
   9  -2   0  300.27   17.70
  -9  -2   0  267.87   18.00
   9   2   1 1273.77   41.90
   9   2   1 1195.28   44.90
  -9   2  -1 1219.28   44.20
   9   2   1 1155.58   33.40
  -9   2  -1 1193.28   44.10
  -9  -2  -1 1261.67   41.20
   9  -2   1 1207.28   43.20
   9  -2   1 1241.78   45.20
  -9  -2  -1 1217.48   44.30
   9   2   2  483.65   26.60
   9   2   2  501.55   28.90
   9   2   2  534.15   23.70
  -9   2  -2  536.55   26.70
  -9   2  -2  503.35   26.50
  -9  -2  -2  508.55   26.50
   9  -2   2  542.25   27.60
  -9  -2  -2  520.55   24.20
   9  -2   2  529.25   27.30
   9   2   3   53.09   12.50
   9   2   3   39.20    9.20
   9   2   3   51.89    8.80
  -9   2  -3   52.29   11.10
  -9   2  -3   62.59   10.30
  -9  -2  -3   61.59   11.00
  -9  -2  -3   60.99   11.00
  -9  -2  -3   76.19   11.00
   9  -2   3   53.49   10.30
   9  -2   3   47.40   11.30
   9   2   4  111.19   11.10
  -9   2  -4  115.89   14.50
   9   2   4  116.69   15.60
  -9  -2  -4  113.09   14.10
   9  -2   4  133.89   16.10
   9  -2   4  133.99   14.40
   9  -2   4  117.49   15.20
   9   2   5   96.19   12.40
  -9   2  -5   78.59   14.40
   9   2   5   88.19    9.60
   9   2   5  106.59   14.90
   9  -2   5   87.89    9.50
   9  -2   5  106.99   15.60
   9  -2   5  104.29   15.10
  -9  -2  -5   69.69   12.60
   9   2   6  322.77   27.20
  -9   2  -6  319.77   28.10
   9   2   6  348.77   23.30
   9  -2   6  334.97   17.00
   9  -2   6  339.27   26.00
  -9   2  -7  328.87   22.80
   9   2   7  246.48   20.20
   9  -2   7  254.27   23.80
   9  -2   7  293.17   26.00
   9  -2   7  297.67   15.70
  -9   2  -8   48.40   13.30
   9   2   8   13.10    7.80
   9  -2   8   21.60    6.50
   9  -2   8   22.80   10.80
   9  -2   8   16.00    9.70
   9   2   9    3.70    8.70
   9  -2   9   23.70    9.60
   9   2  10   25.80   11.60
   9   2  10   30.80   11.90
   9  -2  10    2.10    9.90
   9  -2  10   13.80   12.20
   9   3 -14  176.18   19.70
   9   3 -14  188.08   18.60
   9  -3 -14  182.48   15.90
   9   3 -13  111.79   16.40
   9   3 -13   78.49   15.50
  -9  -3  13   93.39   17.20
   9  -3 -13  137.19   13.60
   9   3 -12  200.28   20.40
   9   3 -12  231.28   19.60
  -9  -3  12  158.88   20.40
   9  -3 -12  195.88   18.00
   9   3 -11   56.89   14.60
   9  -3 -11   73.19   11.70
  -9  -3  11   37.90   18.50
   9   3 -10   39.40   12.80
   9   3 -10   39.30   12.30
  -9  -3  10   37.80   10.50
   9  -3 -10   37.50    6.40
   9  -3 -10   42.70   11.90
   9   3  -9 1401.86   52.69
   9   3  -9 1313.47   54.49
   9   3  -9 1374.06   54.79
   9  -3  -9 1355.16   50.29
   9  -3  -9 1389.96   50.89
  -9  -3   9 1484.55   57.39
   9  -3  -9 1351.96   39.40
   9  -3  -9 1352.16   39.20
   9   3  -8  493.75   29.10
   9   3  -8  449.46   26.70
  -9   3   8  537.25   27.90
  -9   3   8  441.76   18.60
   9  -3  -8  439.66   26.90
  -9  -3   8  470.15   27.20
   9  -3  -8  465.05   16.50
   9  -3  -8  463.75   18.90
  -9  -3   8  448.86   28.10
   9  -3  -8  464.95   26.60
   9   3  -7  177.58   17.50
   9   3  -7  181.38   17.20
   9   3  -7  163.28   16.10
   9   3  -7  186.28   17.30
  -9   3   7  175.68   16.90
   9  -3  -7  163.78   11.20
  -9  -3   7  169.38   16.60
   9  -3  -7  174.48   16.80
  -9  -3   7  197.98   22.10
   9   3  -6  239.88   18.40
   9   3  -6  219.38   20.60
  -9   3   6  221.58   18.00
  -9   3   6  222.68   13.50
   9   3  -6  213.78   18.00
   9   3  -6  250.17   19.60
   9  -3  -6  226.08   13.30
  -9  -3   6  213.18   17.10
   9  -3  -6  213.48   17.80
  -9  -3   6  223.28   18.00
   9   3  -5  729.93   33.90
  -9   3   5  690.83   29.70
  -9   3   5  707.23   32.30
   9   3  -5  717.33   31.90
   9   3  -5  776.22   34.20
   9  -3  -5  779.02   34.30
  -9  -3   5  766.82   33.30
  -9  -3   5  704.53   31.80
  -9   3   4  601.64   24.60
   9   3  -4  607.34   27.60
   9   3  -4  639.84   30.10
   9   3  -4  636.14   30.00
  -9   3   4  614.44   29.40
  -9  -3   4  623.64   28.40
   9  -3  -4  623.94   30.50
  -9  -3   4  583.24   28.80
   9   3  -3   15.00    6.80
   9   3  -3   19.00    7.00
   9   3  -3   13.80    6.30
  -9   3   3   18.80    7.10
  -9   3   3   20.40    6.20
  -9  -3   3   21.30    7.00
  -9  -3   3   14.20    6.70
   9  -3  -3   16.10    3.90
   9  -3  -3   11.00    6.20
   9   3  -2   41.20    7.70
  -9   3   2   46.20    9.30
   9   3  -2   53.49    9.90
  -9   3   2   55.39   10.30
   9   3  -2   43.20   10.00
  -9  -3   2   48.90   10.30
   9  -3  -2   40.90    6.10
   9  -3  -2   47.00   11.20
  -9  -3   2   45.30    7.90
   9   3  -1 1215.08   38.10
  -9   3   1 1203.58   42.10
   9   3  -1 1187.78   44.50
   9   3  -1 1241.28   43.20
  -9   3   1 1220.38   45.20
  -9  -3   1 1214.18   38.80
   9  -3  -1 1192.48   37.90
  -9  -3   1 1173.38   43.60
   9  -3  -1 1256.97   46.40
   9   3   0   56.09   10.40
   9   3   0   35.50    9.70
   9   3   0   39.60    7.10
  -9   3   0   60.29   10.90
   9  -3   0   41.30    9.70
   9  -3   0   49.40    7.90
  -9  -3   0   56.49   10.60
   9   3   1  167.78   15.60
  -9   3  -1  184.28   16.30
   9   3   1  170.68    9.50
   9   3   1  189.18   14.30
  -9   3  -1  173.68   15.30
   9  -3   1  171.38   16.70
  -9  -3  -1  163.98   15.40
   9  -3   1  183.38   14.80
   9   3   2 1497.45   46.80
  -9   3  -2 1532.75   54.69
  -9   3  -2 1494.65   52.99
   9   3   2 1518.95   53.19
   9  -3   2 1501.25   53.99
   9  -3   2 1512.55   51.89
  -9  -3  -2 1450.65   51.89
   9   3   3  533.25   28.60
  -9   3  -3  554.84   28.60
   9   3   3  549.74   31.90
   9   3   3  530.95   22.90
  -9   3  -3  519.35   39.90
   9  -3   3  522.15   30.80
   9  -3   3  543.55   29.50
  -9  -3  -3  501.05   32.80
   9   3   4   98.19   10.20
   9   3   4   94.49   14.80
  -9   3  -4   96.69   14.30
  -9  -3  -4  123.79   14.50
   9  -3   4  101.59   14.70
   9  -3   4  130.69   15.30
   9  -3   4  108.59   15.10
  -9   3  -5  118.79   14.80
   9   3   5   90.89   14.80
   9  -3   5   72.49   14.50
   9  -3   5   88.89   15.30
  -9  -3  -5   88.79   13.20
   9  -3   5   87.49   10.60
  -9   3  -6  111.69   18.80
   9   3   6  107.39   13.60
   9   3   6  129.69   18.20
   9  -3   6   95.59   16.80
   9  -3   6  114.79   16.70
   9  -3   6  130.19   12.10
   9   3   7  228.18   22.70
   9   3   7  163.98   15.70
   9  -3   7  183.48   20.90
   9  -3   7  185.58   21.60
   9  -3   7  156.68   13.50
   9   3   8  215.38   24.80
   9   3   8  239.08   18.70
   9  -3   8  208.78   23.80
   9  -3   8  243.98   16.10
   9  -3   8  230.48   23.90
   9   3   9  179.98   23.00
   9   3   9  202.18   16.70
   9  -3   9  161.88   21.10
   9  -3   9  231.38   15.70
   9  -3   9  218.68   21.70
   9   4 -13  148.89   15.50
   9  -4 -12  130.69   13.80
   9   4 -11  360.36   28.30
   9   4 -11  420.76   29.40
  -9  -4  11  351.66   28.80
   9  -4 -11  420.46   24.60
   9  -4 -11  364.26   26.60
   9   4  -9   -0.60    6.90
   9   4  -9    3.60    5.90
   9  -4  -9    2.60    6.70
  -9  -4   9    2.00    5.90
   9  -4  -9    9.50    6.00
   9   4  -8   21.50    8.00
   9   4  -8   29.30   10.90
   9  -4  -8   34.00    9.90
  -9  -4   8   12.50    7.40
  -9   4   7  940.81   28.50
   9   4  -7  950.10   41.80
  -9   4   7  988.50   41.30
   9   4  -7  947.21   42.10
   9   4  -7  944.71   42.90
   9   4  -7  941.41   41.10
  -9  -4   7  937.81   42.20
   9  -4  -7  999.20   41.10
  -9  -4   7  981.90   41.00
  -9   4   6   58.99    7.70
   9   4  -6   49.90   10.70
   9   4  -6   79.69   15.90
   9   4  -6   45.80   10.10
  -9  -4   6   42.80    9.50
   9  -4  -6   54.69   11.60
  -9   4   5  303.07   20.10
   9   4  -5  294.97   22.10
   9   4  -5  313.27   20.10
   9   4  -5  296.77   21.90
  -9   4   5  285.17   15.50
   9   4  -5  283.87   21.10
   9  -4  -5  299.57   21.20
  -9  -4   5  296.07   21.80
  -9  -4   5  300.37   20.70
   9   4  -4  241.58   19.20
   9   4  -4  243.38   19.30
  -9   4   4  254.27   18.40
  -9   4   4  229.68   14.00
   9   4  -4  285.57   17.30
  -9  -4   4  231.58   17.60
  -9  -4   4  250.77   22.40
   9  -4  -4  230.78   19.10
  -9   4   3 1116.19   38.90
   9   4  -3 1158.18   41.70
   9   4  -3 1235.78   46.40
   9   4  -3 1212.48   45.30
  -9   4   3 1193.88   45.10
  -9  -4   3 1212.08   42.80
  -9  -4   3 1162.18   44.10
   9  -4  -3 1215.38   46.80
   9   4  -2  265.77   16.00
  -9   4   2  249.58   16.40
  -9   4   2  235.68   18.80
   9   4  -2  230.58   17.70
   9   4  -2  261.07   19.80
   9  -4  -2  227.78   11.20
   9  -4  -2  231.78   19.20
  -9  -4   2  229.48   17.90
  -9  -4   2  240.28   15.80
   9   4  -1 1799.22   58.99
   9   4  -1 1646.94   50.39
  -9   4   1 1690.43   54.29
   9   4  -1 1802.12   56.59
  -9   4   1 1742.93   58.79
  -9  -4   1 1696.13   51.49
   9  -4  -1 1744.93   59.89
  -9  -4   1 1680.23   57.29
   9  -4  -1 1733.93   48.60
  -9   4   0  531.75   26.00
   9   4   0  541.65   28.10
   9   4   0  532.95   25.90
   9  -4   0  513.05   23.00
   9  -4   0  557.84   30.20
  -9  -4   0  523.75   27.30
  -9  -4   0  558.84   22.40
   9   4   1  582.44   30.10
   9   4   1  594.04   26.20
  -9   4  -1  589.14   29.20
  -9   4  -1  604.14   30.80
   9  -4   1  586.24   31.30
   9  -4   1  573.74   26.40
  -9  -4  -1  605.94   31.30
   9   4   2   56.19    9.10
  -9   4  -2   66.19   11.90
   9   4   2   45.40   11.00
  -9   4  -2   72.79    9.90
   9  -4   2   44.70   11.70
   9  -4   2   44.30   10.50
   9  -4   2   46.40    9.70
  -9  -4  -2   61.59   15.20
  -9   4  -3  489.25   28.90
   9   4   3  498.35   27.60
   9   4   3  482.35   21.50
  -9   4  -3  525.25   27.70
  -9   4  -3  503.15   28.10
   9  -4   3  481.65   30.20
  -9  -4  -3  485.85   27.10
   9  -4   3  495.55   29.40
   9  -4   3  486.95   27.40
  -9   4  -4  138.69   21.30
  -9   4  -4  140.89   17.70
   9   4   4  132.39   10.50
   9   4   4  104.69   14.10
   9   4   4  119.29   16.60
   9  -4   4  133.69   17.40
  -9  -4  -4  159.68   15.90
   9  -4   4  113.59   14.70
   9   4   5  347.57   21.10
   9   4   5  340.27   27.60
  -9   4  -5  372.66   29.50
  -9  -4  -5  354.26   29.20
   9  -4   5  396.66   26.50
   9  -4   5  324.27   26.50
   9   4   6   36.90    9.50
   9  -4   6   25.20    8.30
   9  -4   6   28.80   10.10
   9  -4   6   45.90   22.60
   9   4   7  128.69   15.70
   9   4   7   92.79   11.70
   9  -4   7  104.99   21.20
   9  -4   7  115.29   17.40
   9  -4   7   81.89   12.40
   9  -4   8   55.09   11.00
   9  -4   8   42.90   15.20
   9   4   9  110.59   11.90
   9  -4   9  146.39   11.30
   9  -4   9  111.89   15.40
   9   5 -13  166.68   18.30
   9  -5 -13  139.89   11.70
   9   5 -12  244.48   23.60
   9   5 -12  226.88   23.80
   9  -5 -12  252.37   17.00
  -9  -5  12  206.68   24.30
   9   5 -11   35.40   12.20
   9   5 -11   31.90   11.60
  -9  -5  11   19.30    9.10
   9  -5 -11   30.70    7.80
   9  -5  -9  104.79   12.60
   9   5  -8  186.28   19.10
   9   5  -8  196.38   20.40
  -9  -5   8  184.48   19.40
   9  -5  -8  172.88   17.40
   9   5  -7  513.95   31.80
   9   5  -7  566.64   32.30
  -9   5   7  573.14   30.40
   9  -5  -7  547.75   30.20
  -9  -5   7  558.74   32.20
  -9   5   6  364.76   25.30
  -9   5   6  404.96   15.90
   9   5  -6  408.86   27.20
   9   5  -6  431.66   24.40
   9   5  -6  388.96   26.90
   9   5  -6  382.56   25.80
  -9  -5   6  402.16   26.00
   9  -5  -6  369.36   24.90
   9   5  -5  563.44   32.00
  -9   5   5  502.05   28.40
   9   5  -5  513.65   29.70
   9   5  -5  549.15   29.70
  -9   5   5  470.25   20.20
   9   5  -5  537.95   30.50
  -9  -5   5  530.75   29.10
   9  -5  -5  508.95   28.80
  -9   5   4   94.09    8.00
  -9   5   4  113.19   11.70
   9   5  -4   88.59   10.70
   9   5  -4   71.59   12.90
  -9  -5   4   83.59   12.30
  -9   5   3  923.31   40.20
   9   5  -3  929.61   37.30
   9   5  -3  964.20   41.10
  -9   5   3 1024.80   34.50
   9   5  -3  996.50   41.10
   9   5  -3  948.81   40.00
   9  -5  -3  999.10   42.40
  -9  -5   3  899.21   39.60
  -9  -5   3  963.50   38.50
   9   5  -2  818.82   35.70
   9   5  -2  817.42   32.40
  -9   5   2  818.42   36.60
   9   5  -2  845.62   37.70
  -9   5   2  849.72   32.00
  -9  -5   2  749.42   35.70
   9  -5  -2  777.62   37.90
  -9  -5   2  863.91   34.00
  -9   5   1  276.37   17.50
   9   5  -1  279.87   19.20
  -9   5   1  267.97   21.50
   9   5  -1  272.97   20.40
  -9  -5   1  285.27   19.50
  -9  -5   1  251.27   16.50
   9  -5  -1  234.28   20.60
  -9   5   0 1144.49   43.10
   9   5   0 1180.68   42.30
   9   5   0 1115.99   45.00
  -9  -5   0 1131.29   44.90
   9  -5   0 1164.48   48.00
   9  -5   0 1093.09   37.10
  -9  -5   0 1132.79   37.90
  -9   5  -1 1768.92   69.19
   9   5   1 1951.90   61.89
   9  -5   1 1842.42   56.79
   9  -5   1 1819.12   65.79
  -9  -5  -1 1914.31   52.29
  -9  -5  -1 1783.12   61.79
   9  -5   1 1888.11   66.49
   9   5   2  262.97   16.50
   9   5   2  250.77   20.10
  -9   5  -2  328.87   19.20
  -9   5  -2  242.58   19.40
   9  -5   2  284.77   19.20
   9  -5   2  264.37   22.40
  -9  -5  -2  265.87   12.30
   9  -5   2  259.47   22.20
  -9  -5  -2  289.57   20.00
  -9   5  -3  331.07   23.20
   9   5   3  310.87   17.00
   9   5   3  333.97   22.60
   9  -5   3  293.27   21.50
   9  -5   3  300.47   24.90
  -9  -5  -3  352.66   23.90
   9   5   4  421.56   25.90
   9   5   4  354.56   28.40
  -9   5  -4  486.05   27.70
   9  -5   4  409.46   29.60
  -9  -5  -4  369.86   26.50
   9  -5   4  412.26   26.80
   9   5   5  288.57   18.50
   9   5   5  300.07   27.30
   9  -5   5  281.97   36.70
   9  -5   5  294.67   24.00
   9   5   6   91.39   12.10
   9  -5   6  101.69   17.40
   9  -5   6   89.69   15.90
   9   5   7   75.09   12.30
   9   5   7   73.39   15.70
   9  -5   7   95.29   13.90
   9  -5   7   55.59   15.70
   9   5   8   44.10   12.30
   9  -5   8   19.40   10.80
   9  -5   8   26.40    8.60
   9   6 -12   98.49   16.90
  -9  -6  12  111.59   17.80
   9   6 -11  453.55   32.80
   9   6 -11  455.95   32.20
  -9  -6  11  434.46   33.00
   9  -6 -11  461.35   25.90
   9   6  -9  192.88   22.70
   9   6  -9  194.48   20.20
  -9  -6   9  175.18   20.00
   9  -6  -9  166.48   17.00
   9   6  -8   18.60    9.80
   9   6  -8   16.10   11.70
  -9  -6   8    7.70    8.10
   9  -6  -8    9.10    7.00
   9   6  -6   50.69   11.90
   9   6  -6   69.59   14.20
   9  -6  -6   59.79   11.30
  -9  -6   6   72.49   15.00
  -9   6   5   75.59   14.60
   9   6  -5   40.30   10.50
   9   6  -5   37.50    9.80
  -9   6   5   67.69    7.80
   9  -6  -5   41.30   11.80
   9   6  -4   84.59   14.20
   9   6  -4  115.59   15.40
   9  -6  -4  110.99   15.00
  -9  -6   4  103.79   14.00
  -9   6   3   80.89   11.30
   9   6  -3   85.89   13.30
   9   6  -3   80.69   12.80
   9  -6  -3   91.79   14.40
  -9  -6   3   75.79   12.10
   9   6  -2  593.44   32.10
  -9   6   2  604.24   26.80
   9   6  -2  634.04   31.50
   9   6  -2  532.15   29.50
  -9  -6   2  552.34   33.60
   9  -6  -2  616.94   33.90
  -9  -6   2  651.93   30.10
   9   6  -1  258.37   18.60
   9   6  -1  236.48   18.90
  -9   6   1  307.07   18.60
   9   6  -1  235.78   19.90
   9  -6  -1  252.77   22.00
  -9  -6   1  249.97   17.70
  -9  -6   1  298.67   21.20
   9   6   0  103.19   13.10
  -9   6   0  156.48   17.40
   9   6   0  117.29   14.50
   9  -6   0  128.59   16.90
   9  -6   0  119.09   16.00
  -9  -6   0  123.39   16.30
  -9  -6   0  122.79   14.60
   9   6   1   80.59   11.00
   9   6   1   55.19   11.80
  -9   6  -1   89.69   11.10
  -9  -6  -1   63.69    8.70
   9  -6   1   64.19   15.40
  -9  -6  -1  106.69   14.40
   9   6   2  114.29   14.90
   9   6   2  152.78   22.10
  -9  -6  -2  165.28   18.60
  -9  -6  -2  120.39    9.70
   9   6   3   36.50   10.30
   9  -6   3   36.80   10.40
   9  -6   3   31.00   10.10
   9   6   4   55.29   12.20
   9   6   4   75.79   22.70
   9  -6   4   70.39   12.80
   9  -6   4   55.39   21.00
   9   6   5   46.40   11.40
   9   6   5   42.30   13.40
   9  -6   5   42.50   13.90
   9  -6   5   58.49   10.00
   9  -6   5   58.09   12.00
   9   6   6   25.10   10.60
   9  -6   6   11.80    9.70
   9  -6   6   19.00   10.10
   9  -6   6   11.90    7.80
   9   6   7   86.39   16.80
   9  -6   7  106.29   17.40
   9  -6   7   72.49   16.80
   9   7 -11  223.78   24.80
   9   7 -11  206.48   25.40
  -9  -7  11  228.28   25.50
   9  -7 -11  284.07   20.30
   9  -7 -10  119.49   12.80
   9   7  -9  202.28   23.10
   9   7  -9  231.48   25.70
   9  -7  -9  277.47   20.10
  -9  -7   9  213.88   23.50
   9   7  -8  187.28   21.10
   9   7  -8  207.78   22.70
   9  -7  -8  217.28   19.70
  -9  -7   8  213.98   22.60
   9   7  -7    4.50    8.10
   9   7  -7    2.00    8.60
   9  -7  -7   16.20    7.90
  -9  -7   7    7.00   11.50
   9   7  -6  114.99   17.50
   9   7  -6  117.89   21.10
   9  -7  -6  140.59   15.00
  -9  -7   6  120.69   16.80
   9   7  -5   54.59   13.00
   9   7  -5   44.30   11.70
   9  -7  -5   61.39   13.20
  -9  -7   5   69.29   13.20
   9   7  -3   23.60    8.20
   9   7  -3   18.00    8.30
   9  -7  -3    9.20    8.50
  -9  -7   3   15.20    7.20
   9   7  -2  213.68   18.80
   9   7  -2  209.38   18.90
   9   7  -2  160.08   18.20
  -9   7   2  147.09   15.30
   9  -7  -2  161.08   18.90
   9  -7  -2  174.48   19.40
  -9  -7   2  184.28   17.00
   9   7  -1  218.98   18.20
  -9   7   1  174.48   16.20
   9   7  -1  167.08   16.80
   9  -7  -1  162.18   18.30
   9  -7  -1  151.78   19.00
  -9  -7   1  165.48   15.40
  -9   7   0  238.58   19.20
   9   7   0  259.67   19.50
   9   7   0  250.77   20.90
  -9  -7   0  259.97   17.80
   9  -7   0  242.18   22.30
   9   7   1  238.68   20.60
   9   7   1  193.08   17.10
  -9  -7  -1  232.38   16.50
   9  -7   1  265.37   22.90
   9   7   2   69.39   15.30
   9   7   2   64.09   11.00
   9  -7   2   62.79   14.00
  -9  -7  -2   56.99    8.70
   9   7   3  330.47   16.10
  -9   7  -3  370.66   29.20
   9   7   4   96.99   11.20
   9   7   5   88.29   16.80
   9   7   5   90.69   14.30
   9  -7   5   98.39   16.70
   9  -7   5  101.99   18.60
   9   7   6  115.79   17.40
   9  -7   6  109.79   14.90
   9  -7   6   94.39   18.10
   9   8  -9   87.49   14.70
   9   8  -9  106.09   18.40
   9  -8  -9   89.29   13.30
  -9  -8   9   79.29   15.70
   9   8  -8   78.59   17.80
   9  -8  -8   94.09   14.20
  -9  -8   8   90.09   20.70
   9   8  -7  186.08   20.10
   9   8  -7  124.49   19.90
   9  -8  -7  148.99   18.80
  -9  -8   7  174.78   20.90
   9   8  -6  219.08   22.00
   9   8  -6  188.28   20.90
  -9  -8   6  210.68   22.00
   9  -8  -6  247.28   20.20
   9  -8  -6  216.48   18.00
   9   8  -5  120.89   17.60
   9   8  -5  113.49   22.70
  -9  -8   5   97.19   16.00
   9  -8  -5  100.99   15.00
   9  -8  -5  123.79   15.80
   9   8  -4    9.80    9.00
   9   8  -4    6.60    8.10
   9  -8  -4   10.30    8.40
  -9  -8   4    5.90    7.00
   9  -8  -4   -0.70    8.20
   9   8  -3  121.79   15.60
   9   8  -3  123.69   17.90
   9  -8  -3   93.09   14.90
   9  -8  -3   96.39   17.00
  -9  -8   3  128.09   15.30
  -9   8   2  150.78   13.20
   9   8  -2  122.79   14.10
   9  -8  -2  122.59   15.00
   9   8  -1   57.99   14.00
  -9  -8   1   51.39   11.30
   9  -8  -1   41.20   11.70
   9   8   0   94.39   14.30
   9   8   0   83.89   14.30
  -9  -8   0   69.99   12.40
   9  -8   0   86.69   16.30
   9   8   1   31.20   11.10
   9   8   1   17.70    8.90
   9  -8   1   32.50   10.60
  -9  -8  -1   46.00    8.80
   9   8   2   49.80   10.80
   9   8   2   80.09   11.90
  -9  -8  -2   85.79   10.00
   9  -8   2   67.29   13.90
   9   8   3  142.79   15.10
  -9  -8  -3  126.89   11.40
   9  -8   3   97.79   19.50
   9   8   4  184.38   18.30
   9  -8   4  186.68   23.40
   9   8   5   31.10    9.40
   9   8   5   28.10   10.20
   9  -8   5   37.50   10.00
   9  -8   5   33.90   11.20
   9   9  -7  244.58   24.50
   9   9  -7  231.58   24.00
  -9  -9   7  247.98   24.10
   9   9  -6   48.30   13.50
   9   9  -6   37.70   14.70
  -9  -9   6   30.70   12.10
   9   9  -5   51.89   12.40
  -9  -9   5   31.00   12.20
   9  -9  -5   65.69   13.60
   9   9  -4  141.39   15.30
  -9   9   4  102.39   13.80
   9  -9  -4  108.79   13.20
  -9  -9   4   87.09   15.80
   9   9  -3  194.58   20.50
  -9   9   3  190.08   15.80
   9   9  -3  123.39   30.60
  -9  -9   3  168.88   18.70
   9   9  -2   95.89   13.80
   9   9  -2  119.99   13.60
   9  -9  -2  115.59   13.60
  -9   9   1   52.59   13.80
  -9  -9   1   58.99   11.40
   9  -9  -1   35.30   11.00
   9   9   0  117.59   14.40
   9  -9   0  113.89   16.60
  -9  -9   0  115.39   12.80
   9   9   1  144.89   15.50
   9   9   1  150.58   14.70
   9  -9   1  178.68   17.70
  -9  -9  -1  125.79   13.30
   9   9   2  123.39   14.40
  -9  -9  -2  140.29   11.80
   9   9   3  135.89   13.40
  -9  -9  -3  148.59   11.10
   9  10  -3  121.89   18.20
   9  10  -3  185.28   17.30
  -9  10   3  161.58   15.30
  -9  10   3  163.48   16.10
  -9 -10   3  132.39   16.80
  -9  10   2  120.49   20.50
   9  10  -2  140.89   15.30
   9  10  -1   95.79   16.40
  -9 -10   1  113.19   20.90
   9 -10  -1  123.09   16.30
  10   0 -14  152.88   15.50
  10   0 -14  124.59   12.00
  10   0 -13   24.20    7.10
  10   0 -13   25.00    9.40
  10   0 -12  224.98   22.10
  10   0 -12  259.57   19.20
  10   0 -11   32.90   14.10
  10   0 -11    1.40    7.10
  10   0 -11   -1.50    5.50
  10   0 -10 1042.30   40.50
  10   0 -10 1068.69   46.20
  10   0 -10 1070.99   42.00
  10   0  -9    1.90    8.00
  10   0  -9    6.40    7.10
  10   0  -9    4.50    5.10
  10   0  -8  302.37   19.80
  10   0  -8  338.07   23.70
 -10   0   8  420.46   20.30
  10   0  -8  357.86   21.10
  10   0  -7    5.70    6.20
  10   0  -7   -2.80    6.30
 -10   0   7    1.80    5.50
 -10   0   6  428.66   25.40
 -10   0   6  397.76   21.80
  10   0  -6  443.36   25.70
  10   0  -6  407.66   24.60
  10   0  -6  427.06   22.80
  10   0  -5    1.30    4.60
 -10   0   5    9.20    7.10
  10   0  -5   -1.90    4.30
  10   0  -5   -5.70    4.00
 -10   0   5   -2.80    4.20
  10   0  -4  272.07   19.60
  10   0  -4  254.37   17.80
 -10   0   4  282.17   18.10
  10   0  -4  264.87   17.70
 -10   0   4  269.37   19.30
  10   0  -3    0.60    5.40
 -10   0   3   -3.60    4.20
  10   0  -3   -2.90    4.10
  10   0  -3    2.60    3.90
 -10   0   2  607.04   28.70
  10   0  -2  594.14   28.40
  10   0  -2  633.24   26.50
 -10   0   2  603.44   27.50
  10   0  -2  654.03   30.10
 -10   0   1    2.80    5.60
  10   0  -1   -2.30    4.00
  10   0  -1   -3.10    4.70
 -10   0   1   -1.80    4.70
  10   0  -1    5.20    4.20
  10   0   0  685.23   26.10
  10   0   0  676.23   31.70
 -10   0   0  685.63   31.00
  10   0   0  679.03   30.70
 -10   0   0  670.93   30.40
  10   0   0  707.13   32.00
  10   0   1   -6.20    4.50
 -10   0  -1    9.90    4.10
  10   0   1   -1.30    2.90
 -10   0  -1   -0.60    4.20
  10   0   1   -2.00    4.70
  10   0   2  736.83   35.10
  10   0   2  666.43   24.10
 -10   0  -2  708.73   35.10
  10   0   2  738.73   32.00
 -10   0  -2  738.53   31.50
 -10   0  -3   -3.30    5.70
  10   0   3    3.60    5.30
  10   0   3   -0.30    5.30
  10   0   3    1.60    2.50
 -10   0  -4  100.89   14.60
  10   0   4   96.59   12.40
  10   0   4  111.19   15.60
  10   0   5   -0.40    6.30
 -10   0  -5   -4.40    7.50
  10   0   5   -0.40    5.60
  10   0   5    4.50    6.10
  10   0   6  131.39   16.30
  10   0   6  109.39   14.90
  10   0   7    0.10    6.40
  10   0   7    3.60    5.20
  10   0   8  767.22   43.50
  10   0   8  763.72   45.70
  10   0   9   17.60    8.40
  10   1 -14  136.99   15.90
  10   1 -14  137.59   18.20
  10  -1 -14  141.79   18.90
  10   1 -13   71.89   11.40
  10  -1 -13   76.69   10.30
  10   1 -12   88.59   13.50
  10   1 -12   68.79   14.80
  10  -1 -12   57.09   10.60
  10   1 -11   41.50   12.10
  10   1 -11   16.70    8.10
  10   1 -11   23.70    8.40
  10  -1 -11   30.60    9.60
  10  -1 -11   34.90    8.70
  10   1 -10  176.78   19.30
  10   1 -10  199.28   17.60
  10   1 -10  180.68   22.50
  10  -1 -10  223.28   17.20
  10  -1 -10  203.78   15.30
  10  -1 -10  203.68   19.60
 -10   1   9  367.26   21.20
  10   1  -9  329.67   23.90
  10   1  -9  393.56   23.70
  10   1  -9  379.66   25.90
  10  -1  -9  349.17   25.70
  10  -1  -9  424.16   21.50
  10  -1  -9  402.86   21.20
  10  -1  -9  384.06   25.30
  10   1  -8  951.00   39.00
  10   1  -8  993.30   42.80
 -10   1   8  987.90   34.40
  10   1  -8  972.30   42.30
  10   1  -8  934.31   43.10
 -10   1   8  965.10   41.80
 -10  -1   8  964.90   38.30
  10  -1  -8 1010.70   42.40
  10  -1  -8  943.81   35.20
  10  -1  -8 1027.60   36.70
  10   1  -7  214.18   18.70
  10   1  -7  260.17   21.90
 -10   1   7  205.08   28.30
  10   1  -7  232.18   18.00
 -10   1   7  225.28   15.30
  10  -1  -7  248.48   19.70
  10  -1  -7  231.88   19.40
  10  -1  -7  221.88   16.30
 -10  -1   7  197.78   17.00
 -10   1   6  137.19   12.40
  10   1  -6   95.39   14.00
  10   1  -6  131.39   14.00
  10   1  -6  103.59   13.80
 -10  -1   6  115.69   13.70
  10  -1  -6  126.59   14.70
  10  -1  -6  134.59   14.80
  10  -1  -6  133.79   14.50
  10   1  -5   73.89   11.20
  10   1  -5   69.09   11.70
 -10   1   5   68.59   11.90
  10   1  -5   58.79   10.70
 -10   1   5   69.99   10.80
  10  -1  -5   69.49   11.50
 -10  -1   5   79.99   11.00
 -10  -1   5   85.89   12.50
  10  -1  -5   67.69   10.70
  10  -1  -5   66.29   11.30
 -10   1   4  991.40   39.70
 -10   1   4 1017.70   36.90
  10   1  -4 1022.40   40.60
  10   1  -4 1079.99   40.10
  10   1  -4  956.20   37.50
  10  -1  -4 1051.09   38.00
  10  -1  -4  993.70   38.90
 -10  -1   4  961.30   37.90
  10  -1  -4 1064.49   41.60
 -10  -1   4 1020.30   40.70
 -10   1   3  525.05   27.40
  10   1  -3  564.04   25.30
 -10   1   3  560.54   25.70
  10   1  -3  587.44   27.80
  10   1  -3  577.04   28.50
  10  -1  -3  628.54   27.70
 -10  -1   3  518.65   26.50
  10  -1  -3  560.64   26.90
  10  -1  -3  566.54   28.60
 -10  -1   3  577.44   28.70
 -10   1   2   22.00    7.80
  10   1  -2    4.60    5.20
 -10   1   2   -0.20    4.30
  10   1  -2   -2.30    4.90
  10   1  -2   -1.00    3.80
  10  -1  -2    6.20    5.80
 -10  -1   2    9.50    7.10
  10  -1  -2    2.50    4.70
 -10  -1   2   -2.00    3.50
 -10   1   1   57.89   11.20
 -10   1   1   51.49    9.70
  10   1  -1   42.40    9.30
  10   1  -1   46.80    9.50
 -10  -1   1   51.79   11.20
  10  -1  -1   48.80    9.30
  10  -1  -1   45.10    8.70
  10  -1  -1   49.50   10.60
 -10  -1   1   50.69   11.10
  10   1   0  492.25   26.20
  10   1   0  495.55   24.90
 -10   1   0  473.75   25.20
  10   1   0  468.25   19.60
 -10   1   0  470.35   24.90
 -10  -1   0  455.65   24.50
 -10  -1   0  496.25   25.50
  10  -1   0  490.55   26.10
  10   1   1  300.37   22.00
 -10   1  -1  287.97   19.70
 -10   1  -1  292.27   19.60
  10   1   1  317.07   19.50
  10   1   1  307.47   14.10
  10   1   1  316.37   21.50
 -10  -1  -1  358.16   19.50
  10  -1   1  335.47   21.50
 -10  -1  -1  306.47   20.40
  10   1   2  273.57   20.30
  10   1   2  244.08   11.30
 -10   1  -2  248.98   18.90
  10   1   2  254.57   17.60
  10  -1   2  299.77   20.20
 -10  -1  -2  273.67   19.60
 -10  -1  -2  279.47   20.00
  10   1   3   30.20    8.90
  10   1   3   34.90   10.80
 -10   1  -3   20.00    9.40
 -10  -1  -3   44.40    9.70
 -10  -1  -3   42.40   10.60
  10  -1   3   36.10   10.20
  10   1   4   72.69   12.10
  10   1   4   46.10   11.50
 -10   1  -4   55.59   11.90
 -10  -1  -4   65.89   15.30
  10  -1   4   46.40   10.60
  10  -1   4   45.20   12.90
  10   1   5   55.59    9.10
 -10   1  -5   49.70   13.20
  10   1   5   35.10   11.50
  10   1   5   41.70   10.60
  10  -1   5   62.79   12.10
  10  -1   5   46.40   11.80
  10  -1   5   44.30   12.20
  10  -1   5   40.60    6.90
  10   1   6   22.70    9.70
  10   1   6   33.60    9.20
  10  -1   6   31.10   11.40
  10  -1   6   24.00    8.40
  10   1   7   48.50   10.50
  10   1   7   29.50   10.60
  10  -1   7   45.60   14.10
  10  -1   7   27.90   10.90
  10   1   8  127.39   14.20
  10   1   8   83.09   17.50
  10  -1   8  130.39   18.40
  10  -1   8   87.49   14.70
  10   1   9  315.17   22.50
  10   1   9  273.17   24.00
  10  -1   9  281.27   23.10
  10   2 -14  414.56   29.60
  10   2 -14  420.86   28.10
  10  -2 -14  466.95   33.50
  10  -2 -14  571.84   31.40
  10  -2 -14  501.55   21.00
  10   2 -13  245.98   20.80
  10   2 -13  215.18   20.90
  10  -2 -13  199.38   20.40
  10   2 -12  189.28   17.70
  10   2 -12  159.68   23.50
  10  -2 -12  205.68   16.00
  10  -2 -12  172.78   18.80
  10   2 -11   82.49   14.60
  10   2 -11  103.79   14.80
  10  -2 -11   77.49   10.10
  10  -2 -11   85.99   13.90
  10   2 -10  112.69   15.70
  10   2 -10  106.39   18.00
  10   2 -10  126.59   15.10
  10  -2 -10  117.69   15.30
  10  -2 -10  102.49   11.10
  10   2  -9  348.97   23.80
  10   2  -9  358.66   25.00
 -10   2   9  381.46   19.00
  10  -2  -9  411.56   25.20
 -10  -2   9  367.66   24.20
  10  -2  -9  391.46   19.40
  10  -2  -9  346.47   24.30
  10   2  -8  353.16   21.50
  10   2  -8  300.27   21.70
 -10   2   8  351.26   22.60
 -10   2   8  329.37   16.90
  10   2  -8  310.37   23.40
 -10  -2   8  297.07   23.80
  10  -2  -8  309.77   15.80
  10  -2  -8  306.67   22.60
  10  -2  -8  305.47   17.80
 -10   2   7   60.29    9.80
  10   2  -7   67.89   12.60
 -10   2   7  132.69   31.40
  10   2  -7   85.99   12.70
  10   2  -7   70.29   14.50
  10  -2  -7   72.99   10.10
  10  -2  -7   99.19   13.20
  10  -2  -7   79.49    8.40
 -10  -2   7  101.39   13.10
  10  -2  -7   66.59   12.60
  10   2  -6   55.39   10.70
  10   2  -6   58.09   11.10
 -10   2   6   93.59   16.70
  10   2  -6   39.10    9.30
  10  -2  -6   36.90   13.20
  10  -2  -6   58.19    8.80
 -10  -2   6   79.19   11.80
  10  -2  -6   58.09   11.40
 -10   2   5   43.80    8.60
  10   2  -5   47.50   10.70
  10   2  -5   37.60    9.80
  10   2  -5   38.70    9.50
  10  -2  -5   42.60   10.70
  10  -2  -5   35.60    7.40
 -10  -2   5   33.80    8.70
 -10   2   4  117.79   14.20
 -10   2   4  123.99   12.60
  10   2  -4  131.89   14.30
  10   2  -4  122.09   13.10
  10   2  -4  126.89   14.40
 -10  -2   4  140.59   14.10
  10  -2  -4  127.19   14.50
  10   2  -3  372.66   22.70
  10   2  -3  350.16   22.10
 -10   2   3  355.56   22.30
  10   2  -3  373.26   20.30
  10  -2  -3  371.96   20.70
 -10  -2   3  368.16   21.40
 -10  -2   3  357.16   21.90
  10  -2  -3  392.36   23.90
  10  -2  -3  350.46   17.40
  10   2  -2 1534.35   52.19
  10   2  -2 1483.95   50.99
  10   2  -2 1465.05   46.30
 -10   2   2 1489.25   48.90
 -10   2   2 1430.36   51.39
  10  -2  -2 1536.95   53.39
 -10  -2   2 1450.95   50.79
 -10  -2   2 1466.25   50.79
 -10   2   1  429.46   24.40
 -10   2   1  453.45   23.70
  10   2  -1  472.25   26.10
  10   2  -1  464.65   24.50
  10   2  -1  477.55   22.60
  10  -2  -1  446.36   22.20
  10  -2  -1  443.86   25.70
 -10  -2   1  452.15   24.90
 -10  -2   1  427.16   24.10
  10   2   0  689.63   32.30
  10   2   0  670.73   24.40
 -10   2   0  677.23   31.80
  10   2   0  749.42   31.10
 -10   2   0  673.03   30.80
 -10  -2   0  685.63   30.80
  10  -2   0  720.83   33.40
 -10  -2   0  672.53   31.40
  10  -2   0  708.63   30.30
  10   2   1 2450.65   70.09
 -10   2  -1 2464.15   74.19
  10   2   1 2285.47   59.79
 -10   2  -1 2322.27   73.59
  10   2   1 2495.25   75.19
 -10  -2  -1 2211.98   87.49
  10  -2   1 2412.86   74.29
  10  -2   1 2411.56   72.29
 -10  -2  -1 2364.96   69.59
  10   2   2 1241.18   47.80
  10   2   2 1222.28   44.00
 -10   2  -2 1220.18   46.50
  10   2   2 1204.38   50.19
 -10   2  -2 1273.47   47.50
  10  -2   2 1223.18   47.20
  10  -2   2 1257.27   47.50
 -10  -2  -2 1208.98   42.70
  10   2   3  259.17   25.50
  10   2   3  276.07   22.60
 -10   2  -3  276.37   24.60
  10  -2   3  274.77   20.30
  10  -2   3  264.87   21.10
 -10  -2  -3  250.57   19.40
  10   2   4  371.96   27.40
 -10   2  -4  357.76   25.30
  10   2   4  352.26   19.40
  10  -2   4  317.07   25.10
  10  -2   4  376.26   24.30
 -10  -2  -4  428.06   20.60
  10  -2   4  358.46   25.50
  10   2   5   37.70   10.70
  10   2   5   37.80    8.00
  10   2   5   29.30   10.10
  10  -2   5   35.40   12.00
  10  -2   5   35.40    7.30
  10  -2   5   42.10   12.00
  10   2   6  179.48   23.10
 -10   2  -6  160.88   19.10
  10  -2   6  130.09   18.50
  10  -2   6  128.39   11.10
  10   2   7   58.19   12.10
  10   2   7   93.29   20.50
  10  -2   7   60.69    8.80
  10  -2   7   72.89   17.70
  10   2   8  116.79   13.70
  10   2   8   77.89   15.90
  10  -2   8  101.89   16.10
  10  -2   8  139.69   18.90
  10   2   9  194.58   20.10
  10  -2   9  163.48   22.10
  10  -2   9  142.79   20.60
  10   3 -13  324.37   26.40
  10   3 -13  329.37   25.40
  10  -3 -13  352.26   23.90
  10   3 -12  115.29   21.40
  10   3 -12  106.39   16.00
  10  -3 -12  111.59   14.70
 -10  -3  12   94.99   17.50
  10   3 -11  147.39   18.30
  10   3 -11  125.09   30.30
 -10  -3  11  149.19   19.30
  10  -3 -11  145.69   10.20
  10  -3 -11  137.39   15.90
  10  -3 -10  119.09    9.20
 -10   3   9  193.48   21.10
  10   3  -9  190.48   18.30
  10   3  -9  161.28   18.60
  10  -3  -9  160.48   11.60
  10  -3  -9  174.28   16.90
 -10  -3   9  164.08   18.50
  10   3  -8  183.48   18.30
 -10   3   8  225.58   15.30
  10   3  -8  187.98   19.00
 -10   3   8  235.18   22.60
 -10  -3   8  175.48   18.20
  10  -3  -8  190.78   18.40
 -10  -3   8  203.68   19.20
  10  -3  -8  196.98   12.90
  10   3  -7  928.91   40.10
  10   3  -7  947.81   41.70
 -10   3   7  998.40   34.20
  10   3  -7  945.31   42.90
 -10   3   7  957.20   41.00
  10  -3  -7  985.10   33.50
 -10  -3   7  943.01   42.40
  10  -3  -7 1027.10   42.40
 -10  -3   7 1057.29   39.80
  10   3  -6   69.99   12.60
  10   3  -6   68.09   13.30
  10   3  -6   70.79   12.30
  10   3  -6  115.29   17.00
 -10   3   6  109.69   18.30
 -10  -3   6   66.69   11.60
  10  -3  -6   75.89    9.30
 -10  -3   6   89.89   12.20
  10  -3  -6   69.89   12.80
 -10   3   5  137.09   18.80
  10   3  -5  145.19   15.40
 -10   3   5  147.19   12.60
  10   3  -5  164.18   14.40
  10   3  -5  149.88   15.90
  10  -3  -5  132.19   15.50
 -10  -3   5  173.68   22.00
 -10  -3   5  141.49   14.50
  10   3  -4  404.86   24.90
  10   3  -4  418.26   25.10
 -10   3   4  387.16   24.10
 -10   3   4  385.46   20.20
  10   3  -4  434.86   22.00
 -10  -3   4  353.76   25.30
  10  -3  -4  422.86   25.50
 -10  -3   4  422.56   23.20
  10   3  -3  318.27   19.40
 -10   3   3  316.77   21.40
  10   3  -3  337.17   22.10
 -10   3   3  314.07   18.80
  10   3  -3  306.97   21.40
 -10  -3   3  335.17   21.50
 -10  -3   3  323.57   19.50
  10  -3  -3  346.67   23.20
  10  -3  -3  338.07   14.90
  10   3  -2  381.96   20.30
 -10   3   2  424.46   24.50
  10   3  -2  424.06   24.80
  10   3  -2  421.26   24.10
 -10   3   2  415.56   22.30
  10  -3  -2  397.36   18.30
 -10  -3   2  376.26   23.60
  10  -3  -2  430.46   25.70
  10   3  -1 1119.09   41.30
  10   3  -1 1073.19   38.90
 -10   3   1 1063.89   40.10
 -10   3   1 1024.00   44.80
  10   3  -1 1042.50   42.20
  10  -3  -1 1116.19   44.50
  10  -3  -1 1050.29   36.40
 -10  -3   1 1046.20   45.30
  10   3   0 1472.05   48.90
  10   3   0 1361.36   41.00
  10   3   0 1407.36   51.89
 -10  -3   0 1364.76   60.09
  10  -3   0 1453.75   47.00
  10  -3   0 1404.96   52.39
  10   3   1  252.77   12.10
  10   3   1  246.68   17.10
  10   3   1  226.28   18.90
 -10   3  -1  214.18   27.40
 -10   3  -1  235.58   18.80
  10  -3   1  248.98   20.20
 -10  -3  -1  207.08   18.50
  10  -3   1  233.28   17.20
 -10   3  -2  122.89   13.30
 -10   3  -2  101.19   14.90
  10   3   2  116.99   14.20
 -10  -3  -2   89.29   12.50
  10  -3   2  118.59   14.90
  10  -3   2  114.29   13.60
  10   3   3  285.77   17.50
  10   3   3  295.07   21.50
 -10   3  -3  332.87   22.80
  10   3   3  309.77   24.70
 -10  -3  -3  317.87   21.40
  10  -3   3  312.67   22.40
  10  -3   3  282.47   21.80
  10  -3   3  288.67   23.70
  10   3   4    8.50    8.30
 -10   3  -4   24.50    8.70
  10   3   4   16.20    6.80
  10  -3   4    6.40    7.30
  10  -3   4   14.90    7.50
  10   3   5  359.06   28.40
  10  -3   5  351.66   27.90
  10  -3   5  366.96   20.50
  10  -3   6   20.60    9.50
  10   3   7  267.07   18.70
  10   3   7  248.98   25.10
  10  -3   7  244.08   16.40
  10  -3   7  275.77   24.40
  10  -3   7  268.27   25.80
  10   3   8  140.79   14.80
  10   3   8  102.99   19.20
  10  -3   8  127.69   18.20
  10  -3   8  117.39   11.60
  10   3   9  349.67   32.80
  10   3   9  507.65   25.30
  10  -3   9  511.45   22.10
  10  -3   9  396.36   33.80
  10  -3   9  400.56   34.10
  10  -3   9  392.86   33.80
  10   4 -13  117.59   13.60
  10  -4 -13   84.09   13.40
  10   4 -12  181.68   19.00
  10   4 -12  126.59   17.30
 -10  -4  12  107.39   19.00
  10  -4 -12  176.18   16.30
  10   4 -11  262.37   24.10
  10   4 -11  262.37   24.00
 -10  -4  11  238.68   24.40
  10  -4 -11  258.57   21.40
  10   4 -10  135.09   26.10
  10   4 -10  161.38   18.90
  10  -4 -10  169.78   17.50
 -10  -4  10  141.59   20.00
  10   4  -9  245.58   22.50
  10   4  -9  249.88   21.90
 -10  -4   9  241.98   22.10
  10  -4  -9  239.88   20.50
  10   4  -8  542.25   33.30
  10   4  -8  627.34   33.50
 -10   4   8  609.24   21.20
 -10   4   8  617.24   32.70
 -10  -4   8  598.34   34.20
  10  -4  -8  583.74   31.50
  10   4  -7  348.27   25.00
  10   4  -7  464.65   27.00
  10   4  -7  358.86   26.20
 -10   4   7  413.06   17.00
 -10   4   7  382.46   26.20
 -10  -4   7  407.76   26.70
  10  -4  -7  358.96   24.90
  10   4  -6  703.23   36.00
 -10   4   6  742.13   34.60
  10   4  -6  744.23   35.30
  10   4  -6  652.43   33.10
  10   4  -6  737.13   36.10
 -10  -4   6  734.63   33.60
 -10  -4   6  722.33   35.20
  10  -4  -6  738.23   35.60
  10   4  -5   27.40    8.60
  10   4  -5   29.30   10.70
 -10   4   5   65.99   11.80
  10   4  -5   39.50   10.50
  10   4  -5   45.20    9.90
 -10  -4   5   58.59   17.50
  10  -4  -5   38.20   10.50
 -10  -4   5   39.30    8.90
  10   4  -4   54.59   12.70
 -10   4   4   51.19   12.90
  10   4  -4   42.10    9.20
  10   4  -4   39.40    9.90
 -10  -4   4   36.00    8.30
  10  -4  -4   34.40    9.80
  10   4  -3  179.58   17.20
  10   4  -3  208.78   15.60
 -10   4   3  219.78   14.60
  10   4  -3  189.68   18.10
  10  -4  -3  184.18   18.50
 -10  -4   3  193.08   15.50
  10   4  -2  406.76   25.40
  10   4  -2  397.56   24.30
 -10   4   2  390.06   25.30
  10   4  -2  415.76   20.70
 -10   4   2  430.76   21.90
  10  -4  -2  393.66   25.70
 -10  -4   2  428.46   24.40
  10  -4  -2  386.96   16.70
 -10  -4   2  426.06   26.10
  10   4  -1  169.28   16.20
  10   4  -1  183.28   17.20
  10   4  -1  221.18   13.20
 -10  -4   1  164.38   17.10
  10  -4  -1  183.38   18.00
  10  -4  -1  179.78   12.60
 -10  -4   1  177.18   13.20
  10   4   0  609.44   31.20
  10   4   0  570.14   27.60
 -10   4   0  574.74   29.00
 -10   4   0  596.04   30.80
  10  -4   0  576.84   32.20
  10  -4   0  576.64   25.60
 -10  -4   0  561.64   29.90
  10   4   1  195.18   15.60
  10   4   1  229.88   19.30
 -10   4  -1  209.68   18.00
 -10   4  -1  230.88   19.00
  10  -4   1  206.38   19.30
 -10  -4  -1  199.98   19.10
  10  -4   1  206.88   16.70
  10   4   2   24.30    8.20
 -10   4  -2   14.40    9.60
 -10   4  -2   39.50    9.00
  10  -4   2   16.80    8.40
  10  -4   2   17.10    7.70
 -10  -4  -2   26.00    7.50
  10  -4   2   17.10    8.60
  10   4   3  525.55   29.60
  10   4   3  470.45   31.70
  10   4   3  491.25   22.80
  10  -4   3  496.75   30.30
  10  -4   3  508.55   32.20
  10  -4   3  524.85   29.20
  10   4   4   67.29   15.90
  10   4   4   89.69   13.80
  10   4   4   66.79    9.40
  10  -4   4   65.09   13.00
  10  -4   4   77.49   15.80
  10   4   5  125.09   29.00
  10  -4   5  135.29   29.70
  10  -4   5   97.49   15.40
  10   4   6  114.89   13.00
  10   4   6  100.99   18.40
  10  -4   6   96.39   20.00
  10  -4   6  110.89   15.20
  10  -4   6   87.59   12.60
  10   4   7   20.00   11.00
  10  -4   7   39.40    9.10
  10  -4   7   26.90   11.50
  10  -4   7   27.70   11.40
  10   4   8  198.58   22.60
  10   4   8  210.08   15.40
  10  -4   8  218.68   22.60
  10  -4   8  225.68   22.70
  10  -4   8  207.08   15.30
 -10  -5  12   99.69   20.00
  10  -5 -12  105.49   13.70
  10   5 -11   79.09   16.50
  10   5 -11   77.19   19.20
 -10  -5  11   75.19   15.90
  10  -5 -11  100.59   12.70
  10   5 -10   98.19   16.40
  10   5 -10   77.99   17.90
 -10  -5  10   81.89   16.90
  10  -5 -10   92.39   13.00
  10   5  -9  105.19   20.80
  10   5  -9  125.99   22.80
  10  -5  -9  129.79   15.40
  10   5  -8   61.89   13.90
  10   5  -8   72.49   14.30
  10  -5  -8   76.69   15.90
 -10  -5   8   65.29   14.20
 -10   5   7   48.10    8.00
  10   5  -7   31.60   10.70
  10   5  -7   34.20   10.80
 -10  -5   7   42.10   11.40
  10  -5  -7   28.90   10.60
  10   5  -6  294.47   23.70
 -10   5   6  328.17   15.70
 -10   5   6  368.06   25.10
  10   5  -6  402.36   23.30
  10   5  -6  313.97   24.20
  10  -5  -6  291.67   23.50
 -10  -5   6  324.37   23.70
  10   5  -5  238.18   21.20
  10   5  -5  277.87   21.90
  10   5  -5  242.68   21.10
 -10   5   5  277.97   21.20
  10   5  -5  275.07   19.70
 -10   5   5  310.67   14.50
  10  -5  -5  229.68   20.50
 -10  -5   5  240.48   19.90
 -10   5   4   68.19   10.40
  10   5  -4   69.29   12.60
  10   5  -4   59.59   12.30
  10   5  -4   72.09   13.50
  10  -5  -4   44.20   11.60
 -10  -5   4   50.29   10.00
  10   5  -3  479.35   29.10
 -10   5   3  466.65   28.50
 -10   5   3  572.04   24.10
  10   5  -3  473.15   25.10
  10   5  -3  499.25   28.50
 -10  -5   3  440.36   30.20
  10  -5  -3  520.95   30.30
 -10  -5   3  493.65   26.20
  10   5  -2   47.30    9.70
  10   5  -2   55.09   12.60
 -10   5   2   61.69   10.40
 -10   5   2   70.09   12.30
 -10  -5   2   78.49   11.60
 -10  -5   2   57.59    9.40
  10  -5  -2   39.90   12.40
 -10   5   1  122.39   11.90
  10   5  -1  119.89   14.00
  10   5  -1   92.99   13.50
 -10  -5   1  117.09   15.10
  10  -5  -1  106.09    9.00
  10  -5  -1   96.89   14.90
 -10  -5   1   89.69   15.00
 -10   5   0  451.15   25.60
  10   5   0  395.66   23.50
  10   5   0  384.86   25.10
 -10  -5   0  414.36   19.90
  10  -5   0  408.76   27.70
 -10  -5   0  411.76   27.10
  10  -5   0  386.36   19.90
  10   5   1  292.87   22.40
 -10   5  -1  285.67   21.70
  10   5   1  287.27   18.80
  10  -5   1  270.47   23.40
 -10  -5  -1  239.08   29.50
  10  -5   1  260.57   19.10
  10  -5   1  293.17   23.80
  10   5   2  123.09   12.70
  10   5   2  133.49   16.10
  10  -5   2  112.19   16.40
  10  -5   2  102.59   13.20
  10  -5   2   95.99   15.40
  10   5   3  100.59   13.90
  10   5   3  127.19   11.90
  10  -5   3  119.49   15.10
  10  -5   3  125.59   17.70
  10   5   4  324.57   23.60
  10   5   4  363.46   38.90
  10  -5   4  305.37   23.90
  10   5   5   77.59   13.90
  10   5   5   52.29   10.70
  10  -5   5   66.89   16.40
  10  -5   5   56.49   13.20
  10   5   6   23.40    7.90
  10  -5   6   -1.00   13.20
  10  -5   6    7.90    8.00
  10   5   7   29.50   12.40
  10   5   7   27.40    8.10
  10  -5   7   34.50   10.50
  10  -5   7   30.30   10.80
  10   6 -11  172.48   17.90
  10   6 -11  144.29   20.70
  10  -6 -11  126.89   16.10
 -10  -6  11  107.19   19.00
  10   6 -10   45.60   11.30
  10  -6 -10   32.80    9.60
 -10  -6  10   30.50    9.90
  10   6  -9  123.59   18.30
  10   6  -9  143.09   18.00
  10  -6  -9  107.89   16.20
 -10  -6   9  123.89   17.10
  10   6  -8    3.10    8.60
  10   6  -8    3.20    6.80
  10  -6  -8   17.40    6.30
 -10  -6   8  -10.60    7.30
  10   6  -7  433.86   32.60
  10   6  -7  461.85   32.10
  10  -6  -7  453.15   28.40
 -10  -6   7  452.95   30.70
  10   6  -6   79.29   14.40
  10   6  -6   87.59   14.40
  10  -6  -6   80.29   13.40
 -10  -6   6   72.49   13.80
 -10   6   5  206.98   13.80
  10   6  -5  258.17   22.50
  10   6  -5  181.98   19.60
  10   6  -5  192.68   20.00
  10  -6  -5  173.68   19.10
 -10  -6   5  196.08   19.00
  10   6  -4  102.79   15.40
  10   6  -4   94.99   15.10
 -10   6   4  121.69   11.60
 -10  -6   4   99.39   14.00
  10  -6  -4   84.59   14.80
  10   6  -3  306.97   22.10
  10   6  -3  292.07   23.50
  10   6  -3  273.87   22.00
 -10   6   3  346.77   19.60
  10  -6  -3  284.67   23.80
 -10  -6   3  276.27   20.70
 -10   6   2  186.48   17.20
  10   6  -2  191.08   18.10
  10   6  -2  209.68   20.10
  10  -6  -2  210.58   20.70
 -10  -6   2  202.28   16.90
  10   6  -1   54.69   12.30
  10   6  -1   57.09   12.90
  10  -6  -1   65.99   14.60
 -10  -6   1   63.99   10.30
  10   6   0  137.89   15.30
  10   6   0  167.38   17.70
 -10   6   0  170.78   16.10
  10  -6   0  148.69   18.50
  10  -6   0  163.38   19.30
  10   6   1   47.90   12.40
  10   6   1   31.90    9.30
  10  -6   1   18.20    9.90
 -10  -6  -1   43.20    7.70
  10  -6   1   29.90   11.10
  10   6   2  544.85   25.90
  10   6   2  566.34   30.50
  10  -6   2  517.25   28.10
  10  -6   2  540.95   34.60
 -10   6  -3  105.29   16.70
  10  -6   3   88.79   11.70
  10   6   4   81.99   15.60
  10   6   4  102.69   13.30
  10  -6   4   67.29   13.30
  10   6   5    3.80    5.50
  10   6   5    6.20    8.10
  10  -6   5    2.30    6.20
  10  -6   5    8.90    9.20
  10   6   6  133.49   17.70
  10   6   6  114.39   11.60
  10  -6   6  105.79   19.70
  10  -6   6  103.39   18.60
  10  -6   6  159.38   15.10
  10   6   7   64.49   18.60
  10  -6   7   89.69   19.70
  10   7 -10   81.69   13.70
 -10  -7  10   70.69   13.80
  10   7  -9   70.39   14.10
  10   7  -9   83.99   16.90
 -10  -7   9   85.29   16.20
  10  -7  -9   89.59   14.80
  10   7  -8   27.30   10.00
  10   7  -8   16.50    7.90
  10  -7  -8    9.70    8.20
 -10  -7   8   12.10    9.30
  10   7  -7   91.99   17.20
  10   7  -7   93.39   17.10
  10  -7  -7  111.19   14.80
 -10  -7   7   81.99   15.90
  10   7  -6   16.10   16.10
  10   7  -6   38.70   12.10
 -10  -7   6   23.40    9.20
  10  -7  -6   33.50   11.30
  10   7  -5   54.09   14.30
  10   7  -5   51.39   18.20
  10  -7  -5   39.20   11.70
 -10  -7   5   35.50   11.00
  10   7  -4   93.79   14.30
  10   7  -4   56.99   13.90
 -10  -7   4   64.99   13.40
  10  -7  -4   76.79   16.00
  10   7  -3   85.69   15.80
  10   7  -3  107.19   14.90
 -10   7   3  134.39   14.00
 -10  -7   3  111.89   14.60
  10  -7  -3  123.89   17.20
 -10   7   2  154.38   13.10
  10   7  -2  122.89   14.90
  10   7  -2  103.49   18.60
  10  -7  -2  133.19   16.20
  10  -7  -2  118.59   17.30
 -10  -7   2   95.09   13.50
  10   7  -1   65.99   14.10
  10   7  -1   65.59   11.70
 -10   7   1  101.09   13.70
  10  -7  -1   89.59   17.50
  10  -7  -1   77.19   15.60
 -10  -7   1   60.29   10.90
  10   7   0   31.60    9.70
  10   7   0   10.80    7.90
  10   7   0   32.60    8.40
  10  -7   0   15.80    9.40
 -10  -7   0   12.80    6.70
  10  -7   0   -2.40    6.60
  10   7   1   70.99   13.20
  10  -7   1   54.29   12.90
 -10  -7  -1   55.69   14.20
  10   7   2  154.38   14.90
  10   7   2  166.58   17.60
 -10  -7  -2  165.28   11.50
  10  -7   2  157.48   20.50
  10   7   3  141.59   16.30
  10  -7   3  103.59   18.20
  10   7   4  234.28   26.10
  10   7   4  287.37   22.30
  10  -7   4  263.17   24.10
  10   7   5   94.39   14.60
  10   7   5   54.59   16.70
  10  -7   5   94.89   13.50
  10  -7   5   68.29   16.80
  10   8  -9   84.79   19.40
  10   8  -9   97.99   19.00
  10  -8  -9  124.09   15.60
 -10  -8   9   80.29   17.30
  10   8  -8  361.86   31.40
  10   8  -8  464.25   33.70
 -10  -8   8  433.46   31.70
  10  -8  -8  457.35   33.20
  10   8  -7  104.69   22.20
  10   8  -7  115.89   18.90
 -10  -8   7  104.49   16.70
  10  -8  -7   93.89   18.50
  10   8  -6  135.59   18.60
 -10  -8   6  106.39   16.60
  10  -8  -6  121.19   19.50
  10   8  -5  126.79   16.90
  10   8  -5   71.99   15.10
  10  -8  -5  125.29   15.40
  10  -8  -5   84.09   15.50
  10   8  -4   45.40   11.70
  10   8  -4   48.50   21.60
  10  -8  -4   47.50   11.60
  10  -8  -4   22.80   10.20
  10   8  -3   19.70    9.70
  10  -8  -3   28.80    7.90
 -10  -8   3   35.10    9.00
  10   8  -2   88.09   10.60
 -10  -8   2   65.79   11.10
  10   8  -1   89.49   13.00
  10   8  -1   79.39   13.30
 -10  -8   1   69.19   13.50
  10  -8  -1   67.19   16.00
  10   8   0   71.29   17.70
  10   8   0   99.59   13.80
 -10  -8   0   81.59   12.00
  10  -8   0   91.49   16.70
  10   8   1   96.39   16.90
  10   8   1   67.99   13.80
 -10  -8  -1  102.79   11.70
  10  -8   1   74.79   16.40
  10   8   2   62.09   11.40
  10   8   2   60.79   12.20
  10  -8   2   84.09   12.80
 -10  -8  -2   68.49   12.20
  10   8   3  232.38   17.70
  10   8   4  200.38   22.60
  10   8   4  172.28   17.60
  10  -8   4  199.28   23.50
  10   9  -6  285.47   21.90
  10   9  -6  224.78   23.80
 -10  -9   6  196.48   22.10
  10   9  -5   72.59   15.90
 -10  -9   5   93.59   15.90
  10   9  -4   32.70   10.60
  10   9  -4   56.79   14.00
 -10  -9   4   26.40   10.90
  10   9  -3  143.19   13.40
  10   9  -3  101.59   15.50
 -10  -9   3   77.09   18.50
  10  -9  -3  112.99   15.70
  10   9  -2  380.16   28.80
 -10   9   2  404.26   23.60
  10   9  -2  306.07   32.10
  10  -9  -2  365.06   27.00
 -10  -9   2  391.66   26.20
  10   9  -1   91.99   16.20
  10   9  -1   85.99   16.80
 -10  -9   1  137.49   14.70
  10  -9  -1  117.39   22.00
  10   9   0  127.49   13.40
  10   9   0   85.49   13.40
  10  -9   0   99.59   16.40
 -10  -9   0  147.69   14.70
  10   9   1   66.39   11.30
  10   9   2   91.79   14.60
  10   9   2   71.59   14.60
  10  -9   2   97.19   18.60
  11   0 -14  290.37   19.40
  11   0 -14  255.77   24.10
  11   0 -12  181.68   17.40
  11   0 -10  784.62   35.80
  11   0 -10  860.91   36.20
  11   0 -10  809.92   40.50
  11   0  -9   -2.30    6.10
  11   0  -9   -0.70    6.20
  11   0  -9   11.20    5.30
  11   0  -8   43.00   10.40
  11   0  -8   52.19   10.10
  11   0  -7    1.00    5.50
 -11   0   7    6.00    5.90
  11   0  -7    3.00    5.50
  11   0  -7   -1.90    5.30
  11   0  -6   28.20   12.50
 -11   0   6   11.70    7.40
  11   0  -6   23.10    7.80
  11   0  -6   23.60    8.10
 -11   0   6   43.60   11.20
  11   0  -5    0.10    5.20
  11   0  -5   -0.20    5.30
 -11   0   5   11.10    5.30
 -11   0   4   66.79   11.90
  11   0  -4   89.99   11.00
  11   0  -4   58.89   10.80
 -11   0   4   84.39   12.10
  11   0  -4   60.49   11.60
  11   0  -3    4.30    4.70
 -11   0   3   -5.50    4.70
 -11   0   3   11.10    5.10
  11   0  -3    1.00    4.80
  11   0  -3   -0.50    5.20
  11   0  -2  651.03   31.00
 -11   0   2  597.64   29.80
  11   0  -2  603.24   26.90
  11   0  -2  616.74   30.80
 -11   0   2  630.64   29.40
  11   0  -1    1.30    5.60
  11   0  -1    4.50    6.00
 -11   0   1    1.60    4.30
 -11   0   1   -7.10    5.70
  11   0   0 2223.78   62.59
  11   0   0 2259.17   71.99
  11   0   0 2261.67   71.59
 -11   0   0 2254.87   69.79
  11   0   0 2225.78   70.39
 -11   0  -1    1.50    5.90
  11   0   1    5.00    5.90
  11   0   1   -3.10    3.60
 -11   0  -1   -2.20    5.40
  11   0   1    4.60    5.70
  11   0   2  222.98   18.10
  11   0   2  216.08   19.90
  11   0   2  202.88   12.70
 -11   0  -2  228.78   18.50
 -11   0  -3    7.60    6.40
  11   0   3    4.60    5.30
  11   0   4  117.29   13.90
  11   0   4  115.99   16.70
  11   0   5    2.50    7.10
  11   0   5    0.10    6.00
  11   0   5    0.70    6.20
  11   0   6  138.09   17.80
  11   0   6  134.99   19.00
  11   0   7   18.00    7.30
  11   0   7   17.80    6.90
  11   0   8  389.16   29.80
  11   0   8  461.05   33.50
  11   1 -14   85.99   12.00
  11  -1 -14  104.99   14.00
  11   1 -13  150.68   20.20
  11   1 -13  158.38   17.40
  11  -1 -13  180.28   20.00
  11  -1 -13  208.28   15.20
  11   1 -12  189.88   20.30
  11   1 -12  187.58   18.20
  11  -1 -12  178.38   15.90
  11  -1 -12  189.48   19.20
  11   1 -11  115.89   14.50
  11   1 -11   86.69   16.70
  11  -1 -11   83.29   15.50
  11  -1 -11   88.49   12.30
  11   1 -10  533.55   33.30
 -11   1  10  545.65   28.70
  11   1 -10  573.74   30.70
  11   1 -10  535.35   30.30
  11  -1 -10  591.04   27.70
  11  -1 -10  604.04   33.80
 -11  -1  10  651.93   31.80
  11  -1 -10  668.43   28.10
  11   1  -9  503.25   31.00
  11   1  -9  492.75   28.00
  11   1  -9  507.45   28.00
 -11   1   9  605.94   25.90
  11  -1  -9  504.25   30.50
  11  -1  -9  476.25   24.90
  11  -1  -9  525.15   24.80
 -11  -1   9  486.05   27.00
  11   1  -7   62.89   14.10
  11   1  -7   52.69   10.80
  11   1  -7   43.10   10.60
  11  -1  -7   51.69    9.70
  11  -1  -7   62.09   11.90
  11   1  -6  146.39   18.60
 -11   1   6  201.28   14.60
  11   1  -6  163.68   15.80
  11   1  -6  143.99   16.50
  11  -1  -6  158.18   14.70
 -11  -1   6  162.78   15.30
  11  -1  -6  169.38   17.50
  11  -1  -6  145.69   16.30
 -11   1   5  323.97   20.30
  11   1  -5  318.17   22.30
  11   1  -5  318.77   21.10
 -11   1   5  371.46   24.90
  11  -1  -5  317.37   21.50
 -11  -1   5  319.47   21.10
  11  -1  -5  328.47   20.50
 -11  -1   5  313.97   24.30
  11  -1  -5  325.47   23.00
  11   1  -4  130.49   14.20
 -11   1   4  142.99   20.10
  11   1  -4  119.29   14.30
 -11   1   4  142.99   13.80
  11  -1  -4  137.49   15.30
  11  -1  -4  117.89   13.00
  11  -1  -4  114.49   14.30
 -11  -1   4  132.59   16.40
 -11  -1   4  100.59   14.50
  11   1  -3  322.77   22.00
 -11   1   3  268.97   19.00
  11   1  -3  310.67   21.20
 -11   1   3  282.07   20.20
  11   1  -3  287.37   18.80
  11  -1  -3  303.87   20.10
  11  -1  -3  365.06   19.40
  11  -1  -3  315.27   22.10
 -11  -1   3  286.67   21.50
 -11  -1   3  295.67   20.30
  11   1  -2 1228.38   46.80
 -11   1   2 1192.28   45.20
  11   1  -2 1193.78   40.80
  11   1  -2 1206.58   46.20
  11  -1  -2 1240.08   43.30
  11  -1  -2 1300.07   46.60
  11  -1  -2 1201.68   47.00
  11  -1  -2 1258.47   44.10
 -11  -1   2 1205.78   45.50
 -11  -1   2 1152.48   45.40
 -11   1   1   21.50    7.80
  11   1  -1   26.20    7.90
  11   1  -1   21.80    7.50
  11   1  -1   27.50    6.80
 -11   1   1   20.10    7.20
 -11  -1   1   36.10   16.10
  11  -1  -1   25.90    8.70
  11  -1  -1   29.10    9.40
 -11  -1   1   49.70   10.70
  11  -1  -1   39.70    8.90
 -11   1   0   51.89   14.50
 -11   1   0   65.29   13.20
  11   1   0   47.80    8.10
  11   1   0   53.49   11.00
  11   1   0   68.29   11.60
  11  -1   0   65.19   13.90
  11  -1   0   56.19   10.90
 -11  -1   0   67.79   12.50
 -11  -1   0   70.39   13.30
  11   1   1  335.17   15.50
  11   1   1  349.47   24.50
 -11   1  -1  373.46   22.50
  11   1   1  351.96   21.90
 -11   1  -1  371.06   22.70
  11   1   1  335.37   23.10
 -11  -1  -1  328.87   22.60
  11  -1   1  335.97   22.90
  11  -1   1  358.66   23.50
 -11   1  -2  109.29   17.40
  11   1   2   92.39    7.10
  11   1   2   78.29   11.80
  11   1   2   75.89   13.40
  11  -1   2   85.29   13.10
  11  -1   2   83.79   14.50
 -11  -1  -2   93.09   16.60
 -11  -1  -2   95.09   14.50
  11   1   3    3.80    5.90
 -11   1  -3   -9.00   14.10
  11  -1   3   17.60    8.00
  11   1   4   54.99   10.40
  11   1   4   73.89   16.80
  11  -1   4   58.99   12.50
  11  -1   4   67.19   13.60
  11   1   5  158.38   17.10
  11   1   5  143.89   14.30
  11   1   5  201.48   20.00
  11  -1   5  161.88   16.00
  11  -1   5  163.78   19.40
  11  -1   5  134.89   17.50
  11   1   6   32.50    8.60
  11  -1   6    7.40   11.20
  11  -1   6   11.60   14.50
  11   1   7   56.59   15.50
  11   1   7   52.39   12.20
  11  -1   7   31.80   12.20
  11   1   8  198.48   24.80
  11   1   8  215.58   19.10
  11  -1   8  192.18   22.50
  11  -1   8  235.08   22.00
  11   2 -13   22.00   11.70
  11  -2 -13   68.39    8.90
  11  -2 -13   46.00   15.70
  11   2 -12   84.19   11.40
  11  -2 -12  120.79   10.00
  11   2 -11   19.20    8.30
  11   2 -11   20.20   14.60
  11  -2 -11   30.00    7.80
  11  -2 -11   26.40   10.80
  11   2 -10  296.27   21.50
  11   2 -10  330.67   25.60
  11  -2 -10  333.97   17.80
  11  -2 -10  306.97   18.50
  11  -2 -10  316.27   23.60
  11  -2  -9  163.18   15.50
 -11  -2   9  198.28   14.80
  11   2  -8   14.30    7.90
  11   2  -8   12.60    7.10
  11  -2  -8   17.60    6.30
 -11  -2   8   22.50    8.20
  11  -2  -8    6.50    7.50
  11  -2  -8   10.00    6.30
 -11   2   7  334.57   21.80
  11   2  -7  263.57   20.50
 -11   2   7  308.17   16.60
  11   2  -7  252.27   21.60
  11  -2  -7  248.38   21.10
  11  -2  -7  332.57   20.20
  11  -2  -7  270.27   14.70
  11  -2  -7  256.07   17.00
 -11  -2   7  215.88   19.60
  11   2  -6  201.18   18.80
 -11   2   6  151.58   17.90
  11   2  -6  194.18   20.20
 -11   2   6  183.38   14.00
  11   2  -6  165.38   16.70
  11  -2  -6  159.78   13.90
  11  -2  -6  159.58   16.90
  11  -2  -6  177.08   17.60
 -11  -2   6  226.98   17.80
  11   2  -5   19.00    8.30
  11   2  -5   23.10    8.70
 -11   2   5   37.00    8.00
  11  -2  -5   36.70    9.00
  11  -2  -5   26.00   10.40
  11  -2  -5   19.40    7.60
 -11   2   4  309.67   22.30
  11   2  -4  325.67   22.30
 -11   2   4  310.57   19.80
  11   2  -4  338.17   23.00
  11   2  -4  311.07   20.50
  11  -2  -4  333.37   23.30
  11  -2  -4  340.27   20.40
 -11   2   3  246.58   21.00
  11   2  -3  259.87   19.90
 -11   2   3  261.17   18.20
  11   2  -3  261.07   17.50
  11   2  -3  244.08   19.30
 -11  -2   3  231.08   28.40
  11  -2  -3  275.57   21.10
  11  -2  -3  273.77   19.00
 -11  -2   3  262.27   21.00
  11  -2  -3  264.47   15.90
  11   2  -2  250.77   19.10
 -11   2   2  238.98   18.10
 -11   2   2  241.98   23.10
  11   2  -2  256.17   20.30
  11   2  -2  242.28   15.90
 -11  -2   2  237.48   19.50
 -11  -2   2  241.48   22.60
  11  -2  -2  260.87   16.90
  11  -2  -2  241.68   20.00
  11   2  -1   57.19   12.40
 -11   2   1   38.40    9.30
 -11   2   1   28.70   12.40
  11   2  -1   35.00    9.40
  11   2  -1   45.50    8.20
  11  -2  -1   34.20    8.10
  11  -2  -1   45.30   12.40
 -11  -2   1   30.90    8.90
  11   2   0   79.99   12.40
  11   2   0   98.09   13.50
 -11   2   0  102.49   13.60
 -11  -2   0  105.89   13.90
  11  -2   0   87.59   12.30
 -11  -2   0   97.99   15.80
  11  -2   0   85.39   13.70
  11   2   1  805.22   34.30
 -11   2  -1  805.02   37.70
  11   2   1  822.42   38.20
 -11   2  -1  850.21   36.90
  11   2   1  811.82   25.80
 -11  -2  -1  809.52   35.30
  11  -2   1  829.62   36.50
 -11  -2  -1  831.62   37.00
  11  -2   1  818.02   37.60
 -11   2  -2  454.05   26.20
  11   2   2  372.36   26.60
 -11   2  -2  383.56   32.80
  11   2   2  383.06   22.20
  11   2   2  393.16   25.60
 -11  -2  -2  443.66   24.50
  11  -2   2  417.96   25.90
  11  -2   2  398.56   25.40
 -11  -2  -2  414.76   30.10
 -11   2  -3   55.79   15.20
  11   2   3   42.20    9.90
  11   2   3   54.39   14.30
  11  -2   3   54.99   13.20
  11  -2   3   44.60   11.70
  11   2   4   35.00    8.70
  11   2   4   30.00   10.20
 -11   2  -4   65.19   14.20
  11   2   5  165.18   23.00
  11   2   5  190.68   19.10
  11   2   5  200.98   14.80
  11  -2   5  203.08   18.40
  11  -2   5  206.68   21.80
  11  -2   5  201.78   13.60
  11   2   6   84.49   13.90
  11   2   6   94.79   18.00
  11  -2   6  146.19   22.00
  11  -2   6  108.89   18.70
  11  -2   6  108.69   10.80
  11   2   7   97.99   13.00
  11   2   7   73.59   18.40
  11  -2   7  104.69   16.40
  11  -2   7   56.99   15.30
  11   2   8  192.18   19.70
  11   2   8  143.79   17.70
  11  -2   8  206.28   20.50
  11  -2   8  143.09   18.80
  11   3 -13  397.06   26.40
  11   3 -13  318.67   25.70
  11   3 -12   88.59   17.30
  11   3 -12  105.69   16.50
  11  -3 -12   99.59   19.10
  11   3 -11   26.80    9.50
  11  -3 -11   35.20    6.30
  11   3 -10   34.40   18.00
  11   3 -10   41.90   11.30
 -11  -3  10   29.70   13.90
  11  -3 -10   52.59    7.70
  11  -3 -10   43.30   11.90
  11   3  -9  359.36   26.80
  11   3  -9  309.67   24.30
  11  -3  -9  346.27   24.90
  11  -3  -9  326.07   17.30
 -11  -3   9  334.77   26.40
  11   3  -8   23.10    9.30
  11   3  -8   31.30   10.00
  11  -3  -8   22.70    9.50
 -11  -3   8   31.40   10.20
  11  -3  -8   39.60    7.90
 -11   3   7  456.85   20.40
 -11   3   7  493.35   27.80
  11   3  -7  399.06   27.50
  11   3  -7  393.66   26.10
  11   3  -7  413.86   27.10
  11  -3  -7  418.46   20.70
 -11  -3   7  425.96   28.60
 -11  -3   7  396.36   26.60
  11  -3  -7  431.56   27.30
  11   3  -6   90.79   13.90
  11   3  -6   98.69   15.10
 -11   3   6  124.69   12.10
 -11   3   6  144.39   14.50
  11  -3  -6  118.09   21.80
  11  -3  -6   95.29   14.10
 -11  -3   6  132.19   15.30
 -11  -3   6   82.19   13.10
  11   3  -5   27.20    8.50
 -11   3   5   31.90    6.90
  11   3  -5   18.50    8.10
 -11  -3   5   20.30    7.80
  11  -3  -5   28.00    9.90
  11   3  -4  198.08   15.30
  11   3  -4  158.08   16.50
 -11   3   4  175.38   16.50
  11   3  -4  152.08   16.40
 -11   3   4  202.88   13.90
  11  -3  -4  172.08   17.60
 -11  -3   4  216.88   16.60
  11  -3  -4  153.98   10.20
  11   3  -3  574.24   30.50
  11   3  -3  530.05   29.20
  11   3  -3  575.14   25.30
  11  -3  -3  534.15   30.60
  11  -3  -3  548.75   21.90
 -11  -3   3  545.65   36.00
  11   3  -2  310.97   22.10
  11   3  -2  291.87   17.70
 -11   3   2  306.77   20.20
  11   3  -2  314.07   21.80
 -11   3   2  321.47   26.20
  11  -3  -2  289.97   22.30
  11  -3  -2  307.27   16.80
 -11   3   1  372.96   25.30
  11   3  -1  389.56   19.10
  11   3  -1  414.86   26.00
 -11   3   1  428.56   24.50
  11   3  -1  417.56   24.30
  11  -3  -1  420.66   21.40
  11  -3  -1  423.46   26.90
 -11  -3   1  406.36   26.40
 -11   3   0 1665.83   60.19
  11   3   0 1648.54   47.70
  11   3   0 1744.33   56.89
  11   3   0 1670.83   60.09
 -11   3   0 1644.74   57.49
  11  -3   0 1706.23   60.99
  11  -3   0 1757.62   61.89
 -11  -3   0 1636.24   58.79
 -11   3  -1  230.28   21.80
  11   3   1  214.68   11.90
  11   3   1  264.97   20.90
  11   3   1  253.97   18.30
 -11  -3  -1  265.47   20.50
  11  -3   1  227.28   20.20
  11  -3   1  247.18   18.70
  11   3   2  418.76   22.70
  11   3   2  435.46   27.50
  11   3   2  448.96   30.10
 -11   3  -2  457.55   32.90
  11  -3   2  428.26   26.30
  11  -3   2  453.15   28.20
  11   3   3  191.48   20.80
  11   3   3  205.98   19.50
  11   3   3  232.78   16.00
  11  -3   3  222.38   20.00
  11  -3   3  217.28   19.60
  11  -3   3  177.88   20.20
  11   3   4   23.50    9.20
  11   3   4   11.30    7.80
  11  -3   4   30.10   10.20
  11  -3   4   13.30    7.70
  11  -3   4   30.40   11.10
  11   3   5  544.75   36.80
  11   3   5  525.85   24.00
  11  -3   5  526.95   35.70
  11  -3   5  579.24   26.70
  11  -3   5  604.64   36.40
  11   3   6   64.19   11.50
  11   3   6   76.49   14.80
  11  -3   6   72.69   11.60
  11  -3   6   88.99   14.50
  11   3   7   28.60   10.10
  11  -3   7   36.70    7.90
  11  -3   7   24.10   12.00
  11  -3   8   28.50    9.00
  11   4 -13   65.59   16.50
 -11  -4  13   77.89   17.30
  11   4 -12   28.80   10.80
  11   4 -12   12.00    8.70
 -11  -4  12   18.40   10.50
  11  -4 -12   13.50    9.70
  11   4 -11   44.60   14.60
 -11  -4  11   44.20   12.00
  11  -4 -11   67.39   13.60
  11   4 -10   62.09   14.20
 -11  -4  10   85.09   15.10
  11  -4 -10   89.19   14.50
  11   4  -9  237.48   31.60
  11   4  -9  223.58   21.50
  11  -4  -9  228.38   21.00
 -11  -4   9  242.58   23.20
  11   4  -8  124.39   16.70
  11   4  -8  127.69   16.70
 -11   4   8  163.68   15.60
  11  -4  -8  129.79   16.90
 -11  -4   8  119.79   16.80
  11   4  -7  567.94   32.60
 -11   4   7  556.14   22.70
  11   4  -7  545.75   33.20
  11  -4  -7  542.35   31.70
 -11  -4   7  547.05   32.40
  11   4  -6  417.56   27.10
  11   4  -6  375.56   26.40
 -11   4   6  426.66   20.20
 -11  -4   6  424.86   27.00
  11  -4  -6  412.06   27.20
 -11   4   5  162.58   19.40
  11   4  -5  134.49   16.30
 -11   4   5  103.89   13.30
  11   4  -5  103.79   15.00
 -11  -4   5  126.99   14.70
  11  -4  -5  114.79   14.90
 -11   4   4  315.07   22.90
  11   4  -4  308.37   19.70
  11   4  -4  303.67   22.40
  11   4  -4  292.17   23.00
 -11   4   4  297.67   18.30
  11  -4  -4  290.77   22.80
 -11  -4   4  281.57   20.20
  11   4  -3  773.92   32.60
 -11   4   3  798.92   32.20
  11   4  -3  729.23   36.00
  11   4  -3  785.72   37.70
  11  -4  -3  772.62   38.50
 -11  -4   3  795.72   33.50
  11   4  -2    6.90    6.20
 -11   4   2   14.80    6.00
  11   4  -2    7.70    6.20
  11   4  -2    9.00    7.20
 -11  -4   2    8.10    5.20
  11  -4  -2    4.90    6.50
 -11   4   1  383.06   33.80
  11   4  -1  405.76   20.10
  11   4  -1  413.16   26.10
  11   4  -1  411.56   24.70
  11  -4  -1  397.36   20.20
  11  -4  -1  400.26   27.20
 -11  -4   1  445.96   34.80
 -11   4   0  114.89   15.40
  11   4   0   79.29   12.30
  11  -4   0   86.59   14.70
  11   4   1  120.79   12.90
  11   4   1  111.89   14.90
 -11   4  -1  139.39   17.70
  11  -4   1   90.29   13.20
  11  -4   1  120.79   15.20
  11   4   2  226.58   20.30
  11   4   2  264.87   17.30
  11  -4   2  244.58   20.10
  11  -4   2  227.78   21.30
  11   4   3  106.49   12.10
  11   4   3  101.39   15.10
  11   4   3  105.29   17.60
  11  -4   3  100.49   16.10
  11  -4   3  126.19   16.40
  11  -4   3  127.59   16.30
  11   4   4   53.79   14.40
  11  -4   4   63.79   14.70
  11  -4   4   43.10   12.20
  11   4   5  212.38   23.90
  11  -4   5  253.47   23.50
  11  -4   5  201.58   21.20
  11  -4   5  192.58   17.10
  11   4   6   35.60   11.90
  11  -4   6   48.80   10.00
  11  -4   6   35.00   12.00
  11  -4   6   15.40    9.80
  11   4   7   42.40   12.60
  11   5 -12   35.20    9.80
 -11  -5  12   29.70   10.80
  11   5 -11   49.99   11.10
  11   5 -11   26.30   12.30
  11  -5 -11   67.19   11.90
  11   5 -10  101.09   17.20
  11   5 -10  118.29   14.90
 -11  -5  10   96.49   17.60
  11  -5 -10   71.69   13.80
  11   5  -9  422.06   31.30
  11   5  -9  428.36   29.00
  11  -5  -9  388.76   27.20
 -11  -5   9  448.16   30.40
  11   5  -8  165.58   23.40
  11   5  -8  142.59   30.30
 -11  -5   8  144.29   18.40
  11  -5  -8  146.19   17.80
 -11   5   7  108.89   10.70
  11   5  -7  120.39   16.00
  11   5  -7   92.59   16.10
 -11  -5   7  115.49   16.00
  11  -5  -7  126.19   17.20
  11   5  -6   88.49   15.40
  11   5  -6   79.49   14.20
 -11  -5   6   80.89   13.50
  11  -5  -6   99.69   18.60
 -11   5   5  486.65   21.90
  11   5  -5  483.65   30.10
  11   5  -5  487.95   30.60
  11  -5  -5  498.05   30.60
 -11  -5   5  468.75   27.90
  11   5  -4  116.39   16.70
  11   5  -4  179.88   18.70
  11   5  -4  132.39   16.20
 -11  -5   4  120.19   14.10
  11  -5  -4  137.09   16.00
  11   5  -3   95.79   14.90
 -11   5   3   84.69   13.60
  11   5  -3   88.49   13.80
 -11  -5   3   71.09   11.60
  11  -5  -3   72.59   13.80
  11   5  -2   71.79   12.70
  11   5  -2   64.59   12.50
 -11  -5   2   50.29    9.60
  11  -5  -2   57.19    6.70
  11  -5  -2   60.59   12.40
  11   5  -1  350.66   25.20
  11   5  -1  380.26   24.60
  11  -5  -1  361.76   17.40
  11  -5  -1  369.66   27.20
 -11  -5   1  393.76   21.40
  11   5   0   27.00    8.50
  11   5   0   15.10    8.20
  11  -5   0   17.30    7.20
  11  -5   0   15.80    9.20
  11   5   1  101.59   15.40
  11   5   1  113.29   13.40
  11  -5   1   77.29   15.40
  11  -5   1   85.19   12.10
  11  -5   1   96.49   15.60
  11   5   2  433.16   23.60
  11   5   2  443.26   28.80
  11  -5   2  470.95   31.30
  11  -5   2  417.16   25.10
  11  -5   2  400.46   29.10
  11   5   3  121.19   18.00
  11   5   3  113.39   12.10
  11   5   3  117.09   15.90
  11  -5   3  125.89   15.90
  11  -5   3   84.59   17.30
  11   5   4  168.58   18.70
  11   5   4  146.09   21.10
  11  -5   4  204.98   19.80
  11  -5   4  159.98   21.50
  11   5   5    4.70    8.70
  11   5   5    1.30    5.60
  11  -5   5    4.90    8.30
  11  -5   5   -2.40    7.60
  11   5   6   63.39   17.30
  11  -5   6   73.99   13.10
  11  -5   6   88.99   21.30
  11  -5   7  103.39   11.20
  11  -5   7   76.99   14.50
  11   6 -11   62.09   18.20
  11   6 -11   99.59   16.90
  11   6 -10   26.70    8.50
 -11  -6  10   30.10    7.30
  11   6  -9  280.87   24.20
  11   6  -9  205.98   24.40
  11  -6  -9  245.78   22.70
 -11  -6   9  290.77   25.30
  11   6  -8   25.80   12.00
  11   6  -8   34.40   11.70
  11  -6  -8   41.90   10.90
 -11  -6   8   36.50   12.10
  11   6  -7    3.10    8.80
  11   6  -7   26.10   10.50
  11  -6  -7   11.20    8.70
 -11  -6   7    5.20    7.80
  11   6  -6   19.70   12.40
  11   6  -6   18.70   11.30
 -11  -6   6   23.40    8.50
  11  -6  -6   27.00   11.00
  11   6  -5  162.68   18.50
  11   6  -5  178.28   19.40
  11  -6  -5  172.58   19.50
 -11  -6   5  145.79   15.90
  11   6  -4  324.57   19.80
  11   6  -4  257.37   22.30
 -11   6   4  231.28   17.90
  11   6  -4  261.37   23.40
 -11  -6   4  274.67   21.30
  11  -6  -4  269.97   23.50
  11   6  -3  468.75   30.10
  11   6  -3  498.05   29.40
 -11   6   3  524.05   26.00
  11   6  -3  590.64   29.90
  11  -6  -3  496.45   32.30
 -11  -6   3  459.55   26.90
  11   6  -2  366.36   23.50
  11   6  -2  316.67   24.70
 -11  -6   2  331.37   21.30
  11  -6  -2  336.47   26.80
  11   6  -1   -4.20    5.50
  11   6  -1   11.90    7.80
 -11  -6   1    7.50    6.10
  11  -6  -1    5.50    7.50
  11   6   0   93.89   15.10
  11   6   0   66.59   12.80
 -11  -6   0   95.39   19.90
  11  -6   0  121.89   20.50
  11  -6   0  128.29   17.90
  11   6   1  107.79   14.10
  11   6   1  148.39   18.10
  11  -6   1  147.69   14.30
  11  -6   1  111.89   18.40
  11  -6   1  140.09   20.20
  11   6   2   69.39   13.60
  11   6   2   59.29   11.30
  11  -6   2   80.49   10.50
  11  -6   2   95.89   15.00
  11   6   3  376.06   28.40
  11   6   3  386.66   20.30
  11  -6   3  389.06   30.90
  11  -6   3  362.26   24.40
  11   6   4   12.80    9.40
  11   6   4   23.70    6.70
  11  -6   4   16.00    8.30
  11  -6   4   32.00    8.80
  11   6   5   16.40    6.10
  11   6   5   10.10    8.00
  11  -6   5   20.30    9.60
  11  -6   5   13.60    6.10
  11   6   6  199.88   14.00
  11   6   6  142.49   20.30
  11  -6   6  176.48   18.30
  11  -6   6  184.68   23.80
  11   7 -10  268.97   26.50
  11   7 -10  225.98   26.20
  11  -7 -10  256.57   21.50
 -11  -7  10  242.98   25.80
  11   7  -9  132.29   19.60
  11   7  -9  149.59   19.40
 -11  -7   9   90.29   18.10
  11  -7  -9  117.99   16.10
  11   7  -8  253.77   25.00
  11   7  -8  293.87   24.60
  11  -7  -8  228.58   27.00
 -11  -7   8  247.98   24.60
  11   7  -7   86.19   17.50
  11   7  -7   88.39   17.80
  11  -7  -7  104.49   28.80
 -11  -7   7   87.69   16.60
  11   7  -6   76.49   16.30
  11   7  -6   93.79   14.20
 -11  -7   6   65.79   18.40
  11   7  -5   73.09   14.30
  11  -7  -5   53.59   25.10
 -11  -7   5   62.19   12.80
  11   7  -4   59.79   15.30
  11   7  -4   79.79   13.80
  11  -7  -4   65.39   16.60
  11   7  -3   91.69   14.70
  11   7  -3   70.49   13.70
 -11  -7   3   82.29   13.70
  11  -7  -3   80.29   14.80
  11   7  -2   79.49   17.80
  11   7  -2  101.19   13.80
  11  -7  -2   79.89   17.30
  11  -7  -2   80.79   17.60
 -11  -7   2   83.49   13.30
  11   7  -1  127.89   15.10
  11   7  -1   88.49   23.90
  11  -7  -1   91.59   17.10
 -11  -7   1  109.89   12.40
  11  -7  -1   98.29   16.90
  11   7   0   48.60   19.10
  11   7   0   77.19   15.30
  11  -7   0   80.29   18.60
 -11  -7   0   91.39   10.40
  11   7   1  286.17   21.80
  11   7   1  218.68   18.40
  11   7   1  193.88   24.10
  11  -7   1  204.98   23.60
 -11  -7  -1  260.97   17.70
  11   7   2   64.59   12.60
  11   7   2   81.29   15.20
  11  -7   2  104.19   17.90
  11   7   3  120.19   13.40
  11  -7   3  105.79   18.90
  11   7   4   61.19   18.40
  11   7   4   66.39   13.30
  11  -7   4   53.19   15.80
  11   8  -8   21.60   12.30
  11   8  -8   74.39   18.40
 -11  -8   8   36.60   10.20
  11   8  -7  270.37   25.70
  11   8  -7  218.68   25.10
  11  -8  -7  227.28   23.10
 -11  -8   7  210.98   24.00
  11   8  -6  101.59   16.80
  11  -8  -6  107.89   21.10
 -11  -8   6   84.99   17.40
  11   8  -5   41.90   11.40
 -11  -8   5   73.09   12.20
  11   8  -4   19.30   11.90
  11  -8  -4   15.10    8.80
 -11  -8   4   22.40    9.00
  11  -8  -4   14.90    8.50
  11   8  -3  131.79   22.20
  11  -8  -3  126.79   19.10
 -11  -8   3   78.39   15.20
  11  -8  -3   98.19   17.50
 -11   8   2   69.39   15.00
  11   8  -2  116.79   14.90
  11  -8  -2   96.69   15.50
  11  -8  -2   72.69   14.60
 -11  -8   2   83.59   14.20
  11   8  -1  138.19   12.80
  11   8  -1  103.79   15.00
  11   8   0   84.39   14.10
  11  -8   0   75.99   15.90
 -11  -8   0   66.29   11.70
  11   8   1   27.00   12.20
 -11  -8  -1   33.50    6.80
  11   8   2    4.00    9.00
  11  -8   2   20.40   11.20
  11   8   3  256.97   19.50
  11  -8   3  205.58   24.60
  11   9  -5   28.30   10.10
 -11  -9   5   24.60   10.90
  11   9  -4  117.79   16.30
  11   9  -4  152.38   20.50
 -11  -9   4  184.08   18.00
  11   9  -3  243.88   22.30
  11   9  -3  282.07   25.50
 -11  -9   3  280.17   24.50
  11  -9  -3  303.17   23.50
  11   9  -2  131.79   17.30
  11  -9  -2  191.68   19.70
 -11  -9   2  192.38   16.20
  11   9  -1  123.99   14.10
  11  -9  -1  169.28   17.40
 -11  -9   1  119.79   13.60
  12   0 -13    6.70    5.90
  12   0 -13   12.80    8.80
  12   0 -12  101.99   13.90
  12   0 -12  108.59   16.20
  12   0 -10   50.89   12.90
  12   0 -10   71.09   12.50
  12   0  -9    2.60    6.00
  12   0  -9    8.30    7.40
  12   0  -9    5.70    6.10
  12   0  -7   -5.40    5.00
  12   0  -7   -2.70    7.70
  12   0  -6   -5.80    5.60
  12   0  -6    2.40    5.90
  12   0  -6   -4.80    6.60
  12   0  -5   -1.50    5.60
  12   0  -5    5.10    6.20
  12   0  -4 1141.29   45.20
  12   0  -4 1120.09   46.90
 -12   0   4 1169.58   46.70
 -12   0   4 1164.88   49.99
  12   0  -4 1168.78   43.50
  12   0  -3   -2.90    4.50
  12   0  -3   -0.60    5.20
  12   0  -3   -2.30    5.20
 -12   0   3    7.10    6.50
 -12   0   3    1.50    6.30
  12   0  -2  333.37   22.90
 -12   0   2  284.37   21.20
  12   0  -2  299.77   21.80
  12   0  -2  350.36   18.60
 -12   0   2  294.27   22.60
  12   0  -1   -3.10    4.70
 -12   0   1    1.80    5.80
  12   0  -1    1.40    6.00
  12   0  -1   -4.80    4.10
 -12   0   1   -5.00    7.60
  12   0  -1   -1.50    4.90
  12   0   0 1464.45   54.99
  12   0   0 1438.76   54.99
 -12   0   0 1456.95   53.49
  12   0   0 1490.85   46.50
  12   0   0 1500.55   54.19
 -12   0   0 1446.26   59.99
 -12   0  -1    5.10    8.60
 -12   0  -2  418.86   28.70
  12   0   2  385.36   18.10
  12   0   2  393.86   25.10
  12   0   2  403.96   27.70
  12   0   3    1.70    6.30
  12   0   3    0.50    6.50
 -12   0  -3   19.10    7.50
 -12   0  -4  398.76   24.70
  12   0   4  315.37   22.50
  12   0   5   13.60    6.40
  12   0   5   -2.50    8.70
  12   0   6   68.09   12.20
  12   0   7   20.80    8.60
  12   0   7   14.80    8.80
  12   1 -13  149.39   17.50
  12   1 -13  167.68   20.90
  12  -1 -13  185.88   21.00
  12  -1 -13  217.68   16.00
  12  -1 -12   99.09   12.80
  12   1 -11   73.09   13.70
  12  -1 -11   90.99   16.00
  12  -1 -11   58.89   11.40
  12   1 -10  237.88   19.80
  12   1 -10  206.68   20.80
  12   1 -10  285.57   21.60
  12  -1 -10  204.88   17.30
  12  -1 -10  221.78   21.90
  12  -1 -10  273.17   19.00
  12   1  -9  521.75   32.40
  12   1  -9  464.65   27.90
 -12   1   9  546.35   25.80
  12  -1  -9  461.65   30.30
  12  -1  -9  480.25   26.00
  12  -1  -9  530.75   24.30
  12   1  -8   87.79   15.30
 -12   1   8  109.39   17.20
  12   1  -8   69.09   12.70
  12  -1  -8   72.59   11.60
  12  -1  -8   94.19   14.70
  12   1  -7   10.50    7.90
  12   1  -7   37.30    9.50
  12   1  -7   37.10    9.40
  12  -1  -7   16.40    8.20
  12  -1  -7   20.30    7.00
 -12  -1   7   24.20    9.30
  12   1  -6   59.39   12.30
  12   1  -6   97.19   13.10
  12   1  -6   75.99   13.30
 -12  -1   6   68.29   13.40
  12  -1  -6   70.59   13.00
  12  -1  -6   74.09   13.20
  12   1  -5  164.08   16.30
  12   1  -5  154.28   16.90
  12   1  -5  160.78   16.80
 -12   1   5  159.78   16.20
  12  -1  -5  168.08   15.60
  12  -1  -5  179.48   17.00
 -12  -1   5  171.38   16.80
  12  -1  -5  154.98   17.40
  12   1  -4  543.55   30.90
 -12   1   4  592.14   28.80
  12   1  -4  585.64   28.80
  12   1  -4  579.94   30.80
  12  -1  -4  511.55   29.00
  12  -1  -4  589.74   29.50
 -12  -1   4  664.93   32.30
  12  -1  -4  556.34   31.30
 -12  -1   4  627.04   29.00
 -12   1   3  763.82   34.30
  12   1  -3  801.42   36.80
  12   1  -3  702.83   34.90
  12   1  -3  715.43   31.10
 -12   1   3  685.43   35.00
  12  -1  -3  785.52   35.00
 -12  -1   3  746.33   34.10
 -12  -1   3  704.73   35.60
  12  -1  -3  736.93   33.90
  12  -1  -3  764.72   36.70
 -12   1   2  239.98   19.30
  12   1  -2  196.88   15.30
 -12   1   2  231.08   19.40
  12   1  -2  219.98   19.10
  12   1  -2  221.98   18.90
 -12  -1   2  239.48   18.50
  12  -1  -2  222.58   19.40
 -12  -1   2  227.88   21.00
  12  -1  -2  198.18   16.80
  12  -1  -2  196.48   17.30
  12  -1  -2  217.58   18.20
  12   1  -1  441.86   26.00
 -12   1   1  477.85   25.30
 -12   1   1  408.36   25.80
  12   1  -1  432.16   21.10
  12   1  -1  438.26   26.70
 -12  -1   1  425.36   26.30
  12  -1  -1  428.66   23.50
  12  -1  -1  429.26   25.00
  12  -1  -1  440.86   27.10
  12   1   0  243.78   19.60
 -12   1   0  241.78   20.50
  12   1   0  287.27   22.20
 -12   1   0  286.17   20.50
  12   1   0  280.67   22.30
  12   1   0  319.37   15.60
 -12  -1   0  298.57   24.90
  12  -1   0  250.47   20.60
  12  -1   0  281.67   21.00
  12   1   1  113.49   15.80
  12   1   1   86.69   13.40
  12   1   1  126.19    9.90
  12   1   1  113.69   14.20
  12  -1   1  107.39   14.80
  12  -1   1   90.39   14.30
 -12  -1  -1  137.99   19.10
  12   1   2  128.69   17.80
  12   1   2  167.88   16.20
  12  -1   2  164.58   17.60
  12  -1   2  152.58   16.20
 -12  -1  -2  206.78   20.10
  12   1   3  102.19   16.50
 -12   1  -3  122.59   19.90
  12   1   3  120.89   14.10
  12  -1   3  133.19   15.40
  12  -1   3  108.49   16.20
  12   1   4   57.99   12.00
 -12   1  -4  112.59   18.40
  12   1   4   69.79   16.00
  12  -1   4   82.69   11.40
  12   1   5    2.70    7.50
  12   1   5    3.30    6.30
  12  -1   5   -2.90    6.10
  12  -1   5   -7.30    5.00
  12  -1   5   -5.30    7.40
  12   1   7  116.59   17.20
  12   1   7  156.88   15.00
  12  -1   7  152.78   18.00
  12  -1   7  122.19   16.00
  12   2 -13  130.59   14.40
  12  -2 -13  112.29   14.00
  12  -2 -13  103.59   11.00
  12   2 -12   93.99   18.10
  12  -2 -12   99.59   16.00
  12  -2 -12  121.29   12.90
  12   2 -11   14.90    7.80
  12   2 -11    2.80    7.40
  12  -2 -11    8.00    6.50
  12   2  -9  255.87   21.40
  12   2  -9  240.48   22.70
  12  -2  -9  241.38   17.80
  12  -2  -9  295.37   17.10
  12  -2  -9  252.57   22.70
  12   2  -8   14.20    7.80
  12   2  -8   24.90    9.30
 -12   2   8   31.50    9.40
  12  -2  -8   26.40    7.80
  12  -2  -8   10.00    7.40
 -12   2   7   53.29   10.50
  12   2  -7   35.00   12.90
  12   2  -7   30.90    9.50
  12  -2  -7   31.50    9.40
  12  -2  -7   33.10    8.20
  12   2  -6    9.40    6.50
  12   2  -6   -1.70    6.00
  12  -2  -6    9.90    6.00
  12  -2  -6   21.50    6.60
 -12  -2   6   -6.80    6.80
  12  -2  -6    7.30    6.80
  12   2  -5   32.70    9.20
  12   2  -5   56.29   14.00
  12  -2  -5   51.89   11.20
  12  -2  -5   25.80    8.70
  12  -2  -5   47.50    9.60
  12   2  -4  143.89   16.10
  12   2  -4  183.28   15.30
  12   2  -4  113.19   14.70
 -12   2   4  139.39   14.50
  12  -2  -4  137.49   12.30
  12  -2  -4  150.78   14.80
  12  -2  -4  144.79   16.90
  12   2  -3   72.59   12.50
  12   2  -3   81.69   11.70
  12  -2  -3   58.69   13.30
 -12  -2   3  107.59   19.00
  12  -2  -3   56.39    9.60
  12  -2  -3   69.09   11.60
  12   2  -2  160.28   17.00
 -12   2   2  196.98   17.10
  12   2  -2  152.78   16.10
  12   2  -2  189.68   13.90
  12  -2  -2  136.49   13.80
  12  -2  -2  135.79   16.60
 -12   2   1   84.89   13.30
  12   2  -1   87.19   13.50
  12   2  -1   82.79   13.30
  12   2  -1   87.79   12.00
 -12   2   1  111.39   13.20
  12  -2  -1   81.29   12.90
 -12  -2   1  112.99   28.40
  12  -2  -1   88.79   12.10
  12   2   0  219.68   15.60
 -12   2   0  278.17   19.30
  12   2   0  215.88   19.40
  12   2   0  209.88   17.90
 -12   2   0  215.78   21.50
  12  -2   0  240.28   18.90
  12  -2   0  228.38   20.30
 -12   2  -1  253.07   20.10
  12   2   1  211.48   11.20
  12   2   1  189.98   19.70
  12   2   1  185.38   18.60
  12   2   1  197.88   17.40
 -12  -2  -1  209.18   21.20
  12  -2   1  194.38   18.70
  12  -2   1  200.18   18.40
  12   2   2   26.80    9.30
  12   2   2   26.60   10.00
  12   2   2   36.10    9.50
  12  -2   2   28.90   10.00
  12  -2   2   53.79   12.90
  12   2   3  161.68   16.00
  12  -2   3  165.08   18.10
  12  -2   3  191.18   18.20
  12   2   4  127.29   14.10
  12   2   4  145.19   24.70
  12  -2   4  141.59   18.20
  12  -2   4  135.19   16.70
  12   2   5  155.18   21.20
  12   2   5  138.39   14.00
  12   2   5  169.08   17.90
  12  -2   5  159.78   12.60
  12  -2   5  166.58   16.00
  12  -2   5  193.78   21.50
  12   2   6   19.10    7.90
  12   2   6   10.10    8.40
  12  -2   6   29.60   11.40
  12  -2   6    7.50    9.20
  12   2   7  138.49   20.80
  12   2   7  178.18   16.60
  12  -2   7  171.28   22.30
  12  -2   7  134.89   20.10
  12   3 -13  137.19   16.80
  12   3 -13  156.08   18.90
  12  -3 -13  151.58   17.90
  12   3 -12   89.49   20.40
  12   3 -12   80.99   16.00
  12  -3 -12  101.99   15.20
  12  -3 -12   97.99    9.20
  12   3 -11   76.89   11.40
  12  -3 -11   55.79    7.30
  12   3 -10   22.10    7.80
  12  -3 -10   11.50    8.60
  12   3  -9  141.09   23.30
  12   3  -9  159.38   18.00
  12  -3  -9  107.59   16.60
  12  -3  -9  150.28   13.10
  12   3  -8   47.10   12.50
  12   3  -8   63.39   13.20
  12  -3  -8   66.49   14.60
  12  -3  -8   49.30    9.40
  12   3  -7  318.77   25.60
  12   3  -7  316.87   24.40
 -12   3   7  349.47   19.20
  12  -3  -7  354.46   19.90
  12  -3  -7  335.47   25.20
  12   3  -6   52.99   13.10
  12   3  -6   55.49   11.70
 -12   3   6   91.09   12.90
  12  -3  -6   71.09   12.20
  12   3  -5  260.57   21.70
  12   3  -5  275.37   21.90
  12  -3  -5  237.58   21.30
  12  -3  -5  267.77   13.00
  12   3  -4   48.10   11.00
  12   3  -4   40.00   10.50
  12  -3  -4   33.20    7.00
  12  -3  -4   36.70   10.20
  12   3  -3  123.39   15.60
  12   3  -3  168.98   13.70
 -12   3   3  170.08   13.90
  12   3  -3  126.89   15.80
  12  -3  -3  128.29   11.10
  12  -3  -3   99.59   14.80
  12   3  -2  679.73   28.30
  12   3  -2  635.74   32.80
  12   3  -2  650.03   34.50
 -12   3   2  672.23   33.90
  12  -3  -2  664.63   27.70
  12   3  -1  634.44   32.60
 -12   3   1  631.34   32.50
  12   3  -1  715.23   26.40
  12   3  -1  709.43   35.70
  12  -3  -1  610.74   38.50
  12  -3  -1  652.13   35.20
  12   3   0  130.89   16.60
  12   3   0  148.79   12.00
 -12   3   0  155.08   17.50
  12   3   0  138.39   15.90
  12  -3   0  126.29   14.00
  12  -3   0  154.88   17.30
  12   3   1  267.07   19.40
  12   3   1  250.57   21.50
  12  -3   1  257.37   22.00
  12  -3   1  292.97   21.40
  12   3   2    3.50    6.20
  12   3   2   -1.10    6.30
  12   3   2    5.10    7.20
  12  -3   2    7.10    6.60
  12  -3   2    0.70    6.30
  12   3   3   40.00   11.60
  12   3   3   55.79   10.90
  12  -3   3   42.20   10.10
  12  -3   3   42.80   11.70
  12  -3   3   30.70   13.10
  12   3   4   14.80   11.00
  12   3   4   10.40    7.20
  12  -3   4    5.50    9.00
  12  -3   4   10.50    9.00
  12   3   5  267.17   26.90
  12   3   5  299.07   17.90
  12  -3   5  248.58   31.10
  12  -3   5  263.97   18.20
  12  -3   5  258.87   25.60
  12   3   6  349.17   30.60
  12   3   6  395.46   25.60
  12  -3   6  361.66   20.90
  12  -3   6  397.96   30.80
  12  -3   6  340.37   30.70
  12   3   7   95.79   18.20
  12  -3   7  120.59   16.90
  12  -3   7  100.99   11.00
  12  -3   7   93.39   16.60
  12   4 -12   29.80    9.20
  12   4 -12   15.60    8.60
  12   4 -11   52.99   13.90
  12  -4 -11   43.20   21.30
 -12  -4  11   23.90   11.10
  12   4 -10   23.40    9.60
  12   4 -10   11.90    9.50
 -12  -4  10   16.50    9.50
  12  -4 -10   16.80    8.50
  12   4  -9  148.59   26.60
  12   4  -9  187.88   21.40
 -12  -4   9  144.39   18.90
  12  -4  -9  202.98   20.70
 -12   4   8  841.82   28.20
  12   4  -8  731.53   39.10
  12   4  -8  716.53   48.40
  12  -4  -8  703.83   38.70
 -12  -4   8  696.63   38.80
 -12   4   7  698.43   28.60
  12   4  -7  746.03   39.60
  12   4  -7  776.82   39.40
 -12  -4   7  681.43   37.10
  12  -4  -7  687.33   37.90
  12   4  -6   52.49   14.50
  12   4  -6   48.20   12.20
  12  -4  -6   46.60   13.40
 -12  -4   6   47.50   11.70
  12   4  -5    7.40    8.90
  12   4  -5   10.40    8.50
 -12  -4   5   12.80    7.00
  12  -4  -5   11.00    7.10
  12   4  -4  159.78   17.90
  12   4  -4  150.78   17.60
 -12   4   4  157.78   17.10
  12  -4  -4  112.29   16.20
  12   4  -3  214.18   19.70
  12   4  -3  240.98   20.70
  12   4  -3  281.07   18.30
  12  -4  -3  204.48   12.10
  12  -4  -3  229.08   21.70
 -12   4   2   63.09   11.00
  12   4  -2   24.80    8.90
  12   4  -2   24.60    8.70
  12  -4  -2   47.20    6.90
  12  -4  -2   35.60   12.30
  12   4  -1  348.47   17.50
  12   4  -1  302.67   24.20
  12   4  -1  324.87   22.70
 -12   4   1  347.37   22.50
  12  -4  -1  308.17   25.00
  12  -4  -1  294.07   18.40
  12   4   0    9.70    6.90
  12   4   0    8.40    7.10
  12  -4   0   -6.00    6.90
  12  -4   0   -2.60    5.60
  12   4   1  218.98   20.80
  12   4   1  225.58   18.40
  12  -4   1  255.67   22.70
  12   4   2   48.70   12.90
  12   4   2   31.10    9.20
  12  -4   2   32.80   10.60
  12  -4   2   47.40   12.30
  12   4   3  138.59   16.70
  12   4   3  135.29   13.70
  12   4   3  151.58   20.10
  12  -4   3  155.38   18.90
  12  -4   3  151.08   20.40
  12  -4   3  168.78   18.10
  12   4   4   72.19   11.40
  12  -4   4   66.29   15.10
  12  -4   4   57.79   16.60
  12   4   5  234.38   25.50
  12  -4   5  231.98   18.20
  12  -4   5  214.18   29.70
  12  -4   5  213.28   25.00
  12   4   6   64.69   11.50
  12   4   6   57.09   15.10
  12  -4   6   83.49   13.30
  12   5 -11   86.09   20.10
  12   5 -11   99.39   15.00
  12  -5 -11   99.89   13.40
 -12  -5  11   95.39   15.30
  12   5 -10   39.10   13.10
  12  -5 -10   52.49   18.50
 -12  -5  10   32.00   11.00
  12   5  -9  188.28   21.70
  12   5  -9  229.78   23.20
  12  -5  -9  204.98   21.40
 -12  -5   9  205.98   21.80
  12   5  -8  286.37   24.00
  12   5  -8  268.97   25.20
  12  -5  -8  257.87   23.10
 -12  -5   8  272.37   29.40
  12   5  -7  148.49   23.10
  12   5  -7  147.29   35.60
 -12  -5   7  152.68   18.50
  12  -5  -7  163.98   19.50
  12   5  -6   97.69   17.00
  12   5  -6  122.09   17.70
  12  -5  -6  109.89   17.10
 -12  -5   6  112.19   15.60
  12   5  -5   31.10   11.10
  12   5  -5   24.30   10.90
  12  -5  -5   32.80   10.80
 -12  -5   5   19.00    7.40
  12   5  -4  390.16   27.80
  12   5  -4  359.86   26.50
 -12   5   4  347.47   21.80
  12  -5  -4  389.36   28.40
 -12  -5   4  364.76   24.30
  12   5  -3    2.00    5.90
  12   5  -3   14.00    7.30
 -12   5   3   16.50    8.10
  12   5  -3   -8.20    5.40
  12  -5  -3   10.00    8.50
 -12  -5   3    3.40    5.20
  12   5  -2  102.59   15.50
  12   5  -2   84.99   14.10
  12  -5  -2   95.29   16.50
  12  -5  -2   83.49    8.10
 -12  -5   2   83.19   11.90
  12   5  -1   14.20    7.20
  12   5  -1   10.50    7.50
  12  -5  -1   17.70    8.50
  12  -5  -1   16.90    6.00
  12   5   0  212.08   21.10
  12   5   0  205.98   18.30
  12  -5   0  212.68   21.40
  12  -5   0  219.08   16.20
  12   5   1  247.38   22.60
  12   5   1  238.88   19.00
  12  -5   1  249.08   18.60
  12   5   2   16.40   10.60
  12  -5   2   39.60   11.90
  12  -5   2   48.00    9.80
  12  -5   2   31.60   10.50
  12   5   3  179.68   15.50
  12   5   3  202.08   20.30
  12   5   3  210.68   22.50
  12  -5   3  229.38   19.20
  12  -5   3  237.68   22.10
  12   5   4   34.90    9.20
  12   5   4   13.20    8.40
  12  -5   4   29.30   10.30
  12  -5   4    5.50    7.40
  12   5   5  105.59   18.60
  12   5   5  114.59   11.70
  12   5   5  104.09   18.60
  12  -5   5   92.09   16.30
  12  -5   5  107.19   13.80
  12  -5   5  125.29   19.90
  12   6 -10   13.80   10.90
 -12  -6  10   17.20    7.50
  12  -6 -10   28.20    9.00
  12   6  -9   50.39   13.30
 -12  -6   9   34.30   12.00
  12  -6  -9   36.10   10.70
  12   6  -8    9.00    8.20
  12   6  -8   11.60    9.20
  12  -6  -8   14.10    9.30
 -12  -6   8   -4.90    6.80
  12   6  -7   42.60   14.70
  12   6  -7   44.10   13.50
 -12  -6   7   41.10   14.10
  12  -6  -7   45.20   14.30
  12   6  -6   85.39   16.30
  12   6  -6   67.09   14.50
  12  -6  -6   57.19   24.70
 -12  -6   6   48.50   11.70
  12   6  -5  133.49   18.10
  12   6  -5  138.59   18.90
 -12  -6   5  103.09   15.30
  12   6  -4  290.17   23.10
  12   6  -4  366.06   26.00
  12   6  -4  300.47   25.50
 -12   6   4  325.07   20.00
 -12  -6   4  263.47   21.70
  12   6  -3   20.20   11.60
  12   6  -3   27.50   10.70
 -12  -6   3   22.10    6.90
  12  -6  -3   22.50   13.10
  12   6  -2   11.30   12.00
  12  -6  -2    9.00    7.70
 -12  -6   2   16.90    6.20
  12   6  -1   73.09   12.30
  12   6  -1   57.59   18.50
 -12  -6   1   63.09   11.10
  12  -6  -1   56.09   15.20
  12   6   0    4.10    8.30
  12   6   0   12.00    8.60
  12  -6   0   19.90   15.60
  12  -6   0   12.60    8.70
  12   6   1  187.88   20.00
  12   6   1  156.38   16.90
  12  -6   1  159.98   15.20
  12  -6   1  153.88   20.70
  12  -6   1  163.18   20.70
  12   6   2  362.86   21.90
  12   6   2  384.26   27.70
  12  -6   2  325.27   28.80
  12  -6   2  341.87   22.40
  12   6   3  427.06   34.90
  12   6   3  391.36   29.10
  12   6   3  457.45   23.10
  12  -6   3  492.25   28.10
  12  -6   3  445.46   33.20
  12   6   4  146.89   17.10
  12   6   4   87.79   18.50
  12  -6   4  110.69   19.80
  12  -6   4  116.89   15.70
  12   7  -9   35.50   12.90
  12   7  -9   41.60   13.30
 -12  -7   9   13.50    8.40
  12  -7  -9    2.90    8.60
  12   7  -8   15.40   12.30
  12   7  -8   46.30   14.30
 -12  -7   8   31.40   12.20
  12   7  -7   32.10   14.10
  12   7  -7   19.50   10.50
  12  -7  -7   22.60   10.50
 -12  -7   7    9.00    8.60
  12   7  -6   28.70   11.50
  12   7  -6   44.70   12.50
  12  -7  -6   45.00   13.50
 -12  -7   6   27.20   10.20
  12   7  -5  111.59   15.80
 -12  -7   5   80.39   14.80
  12  -7  -5   85.79   19.30
  12   7  -4   26.00   10.40
  12   7  -4   18.10   14.80
 -12  -7   4   12.00    8.40
  12  -7  -4   41.20   10.60
  12   7  -3  106.49   17.10
  12   7  -3  141.29   17.10
 -12   7   3  154.48   18.50
 -12  -7   3  123.39   14.60
  12  -7  -3  173.78   19.50
  12   7  -2   11.30    8.00
  12   7  -2   20.30    8.00
  12  -7  -2   19.10   10.60
  12   7  -1  179.28   18.60
  12   7  -1  159.18   19.20
 -12  -7   1  178.78   15.50
  12  -7  -1  126.49   19.80
  12  -7  -1  178.18   19.50
  12   7   0  236.58   18.40
  12   7   0  197.38   20.90
 -12  -7   0  238.28   15.60
  12  -7   0  150.18   21.60
  12  -7   0  164.08   21.60
  12   7   1   85.99   13.80
  12  -7   1   84.09   16.10
  12   7   2   18.80    9.30
  12   7   2   40.20   13.70
  12  -7   2   32.30   10.80
  12   7   3  206.68   23.50
  12   7   3  184.08   19.20
  12  -7   3  226.18   25.10
  12   8  -7  122.69   18.10
  12  -8  -7  103.39   15.30
 -12  -8   7   74.39   17.60
 -12  -8   6  125.79   14.90
  12   8  -5  105.39   14.90
  12   8  -5   73.89   14.30
 -12  -8   5   68.29   13.30
  12  -8  -5  105.69   15.90
  12   8  -4  211.28   23.60
  12   8  -4  209.78   20.70
  12  -8  -4  211.08   23.30
  12  -8  -4  148.69   22.40
 -12  -8   4  196.48   25.70
  12   8  -3  138.39   12.50
  12  -8  -3  144.49   25.60
  12   8  -2  172.18   20.70
  12   8  -2  175.58   28.80
 -12  -8   2  152.18   16.50
  12  -8  -2  172.88   21.00
  12   8  -1   68.79   13.70
  12   8  -1   79.89   14.60
 -12  -8   1   85.89   11.40
  12   8   0  113.59   13.70
 -12  -8   0  118.49   11.70
  12   8   1  357.06   22.90
  12   8   1  389.76   26.90
 -12  -8  -1  454.65   19.60
  12  -8   1  372.16   30.60
  13   0 -13   -2.30   10.10
  13   0 -12  181.88   19.90
  13   0 -12  147.49   16.10
 -13   0  10  610.34   34.60
  13   0 -10  575.84   36.30
  13   0 -10  509.95   35.50
  13   0 -10  576.94   30.60
  13   0  -9   -9.30    7.20
  13   0  -9    4.20    6.40
  13   0  -8   75.39   13.60
  13   0  -8   77.09   14.30
 -13   0   7   -8.20    7.40
  13   0  -7   -7.40    5.00
  13   0  -7    3.40    6.20
 -13   0   6  101.59   17.60
  13   0  -6   76.29   14.60
  13   0  -6   83.19   14.70
  13   0  -5   -4.10    6.20
  13   0  -5    0.90    5.70
 -13   0   5    7.90    7.60
  13   0  -4  369.76   26.40
  13   0  -4  376.46   25.00
 -13   0   4  402.16   25.50
  13   0  -4  442.56   28.30
  13   0  -3   -0.80    5.50
  13   0  -3    1.80    6.00
 -13   0   3   46.80   16.40
 -13   0   3   10.80    6.50
  13   0  -2  226.98   19.70
  13   0  -2  223.88   20.00
 -13   0   2  221.48   23.60
  13   0  -2  267.47   17.60
 -13   0   2  244.38   25.20
  13   0   0  112.89   14.90
 -13   0   0  180.28   25.20
  13   0   0  130.09   15.80
  13   0   1    4.00    6.00
 -13   0  -1    9.10    9.00
  13   0   1   -0.90    5.20
 -13   0  -2  124.59   19.10
  13   0   2  134.59   15.10
  13   0   2  109.49   16.50
  13   0   3    5.00    5.50
 -13   0  -3   28.50    9.50
  13   0   3    7.80    8.80
  13   0   4  245.68   26.50
  13   0   4  238.88   26.20
  13   0   4  215.78   18.10
  13   0   5    7.90    6.60
  13   0   5    1.30    7.80
  13   0   5    0.20    7.00
  13   0   6  188.78   20.60
  13   0   6  238.78   22.30
  13   1 -13  144.69   18.40
  13   1 -13  147.49   18.40
  13  -1 -13  183.28   19.10
  13  -1 -13  177.88   13.70
  13   1 -12  218.78   20.70
  13   1 -12  215.58   24.10
  13  -1 -12  239.38   22.00
  13  -1 -12  261.07   16.90
  13   1 -11  343.37   27.90
  13   1 -11  319.07   24.70
  13  -1 -11  316.97   27.10
  13  -1 -11  307.07   22.30
  13   1 -10  226.48   20.00
  13   1  -9   91.99   17.80
  13   1  -9   89.39   13.20
  13  -1  -9   72.09   11.90
  13  -1  -9   91.19   14.70
 -13   1   8   29.20   11.30
  13   1  -8   16.80    8.50
  13   1  -8   18.90    8.20
  13  -1  -8   20.70    9.70
  13  -1  -8   23.40    7.90
  13   1  -7   61.59   13.30
  13   1  -7   94.29   13.80
  13  -1  -7   73.39   12.90
  13  -1  -7   89.99   15.00
  13   1  -6  918.71   41.10
 -13   1   6 1002.90   41.70
  13   1  -6  895.01   39.90
  13   1  -6  899.71   43.50
 -13  -1   6  897.51   41.20
  13  -1  -6  942.41   39.40
  13  -1  -6  887.21   43.10
  13   1  -5  740.93   39.40
 -13   1   5  897.41   35.50
  13   1  -5  907.61   35.90
  13  -1  -5  833.72   37.40
  13  -1  -5  795.42   36.70
 -13  -1   5  808.42   37.80
  13  -1  -5  761.22   39.40
  13   1  -4  846.52   34.60
  13   1  -4  750.32   38.60
 -13   1   4  829.92   36.50
  13  -1  -4  814.72   37.50
  13  -1  -4  929.71   37.60
  13  -1  -4  808.82   40.20
 -13  -1   4  833.32   39.30
  13   1  -3  307.37   19.00
 -13   1   3  312.87   21.10
  13   1  -3  276.67   22.00
  13   1  -3  272.87   22.40
 -13  -1   3  286.87   30.30
  13  -1  -3  284.77   21.70
  13  -1  -3  282.37   19.60
  13  -1  -3  238.18   21.50
 -13   1   2   87.59   15.10
  13   1  -2   85.79   14.00
  13   1  -2   85.29   14.00
  13  -1  -2   98.89   13.20
  13  -1  -2   98.49   14.60
  13  -1  -2   98.29   13.90
  13   1  -1  252.67   20.80
  13   1  -1  268.27   16.80
  13   1  -1  258.37   21.60
 -13  -1   1  212.88   23.80
  13  -1  -1  274.07   19.20
  13  -1  -1  254.67   21.60
  13   1   0  164.48   18.70
  13   1   0  177.38   13.60
  13   1   0  167.28   18.10
  13   1   0  174.68   17.10
  13  -1   0  180.18   18.60
  13  -1   0  228.48   16.90
  13  -1   0  189.78   18.60
  13   1   1  393.56   25.60
  13   1   1  404.76   28.00
  13   1   1  413.56   18.90
  13  -1   1  401.76   27.40
 -13  -1  -1  436.16   28.20
  13  -1   1  499.95   21.60
  13  -1   1  410.36   27.00
  13   1   2    9.30    7.10
  13   1   2   14.00    8.30
 -13  -1  -2   -3.10   10.20
  13  -1   2    8.10    7.10
  13  -1   2   13.60    7.00
  13  -1   4   43.10    8.60
  13  -1   4   20.80    9.10
  13   1   5  158.68   15.50
  13   1   5  163.18   20.30
  13  -1   5  196.68   20.00
  13  -1   5  136.09   19.50
  13  -1   5  161.78   17.50
  13   1   6  157.58   19.20
  13  -1   6  139.29   18.50
  13  -1   6  154.18   20.70
  13   2 -12   69.39   13.20
  13  -2 -12  109.19   15.00
  13  -2 -12  107.09   12.00
  13   2 -11   66.39   16.20
  13   2 -11  110.79   16.00
  13  -2 -11  113.19   12.70
  13  -2 -11   99.19   15.70
  13   2  -9   81.39   14.20
  13  -2  -9   82.59   10.20
  13   2  -8   47.70   11.10
  13   2  -8   51.39   15.10
  13  -2  -8   61.09   11.70
  13  -2  -8   48.50   10.90
  13   2  -7   53.99   14.80
  13   2  -7   59.09   13.10
  13  -2  -7   57.69   12.60
  13  -2  -7   56.89   10.10
  13   2  -5  251.37   21.40
  13   2  -5  233.08   21.10
  13  -2  -5  257.37   22.50
  13  -2  -5  237.68   18.90
  13  -2  -5  300.07   29.50
  13   2  -4   91.69   14.40
  13   2  -4   66.99   12.20
  13  -2  -4   72.19   10.30
  13  -2  -4   67.39   12.00
  13  -2  -4   75.19   14.40
  13   2  -3  457.45   29.30
 -13   2   3  435.66   26.50
  13   2  -3  458.65   29.10
  13   2  -3  558.64   25.40
  13  -2  -3  455.75   29.80
 -13  -2   3  602.14   43.80
  13   2  -2   66.79   13.00
 -13   2   2   77.19   14.70
  13   2  -2   68.49   13.10
  13  -2  -2   60.29   11.80
  13  -2  -2   66.59   13.40
  13   2  -1  377.86   24.80
  13   2  -1  350.46   25.90
  13   2  -1  402.26   19.10
  13  -2  -1  356.46   23.10
  13  -2  -1  379.96   26.90
 -13  -2   1  428.46   28.00
  13   2   0 1070.09   44.70
  13   2   0 1071.99   47.70
  13   2   0 1066.79   35.30
 -13  -2   0 1107.59   46.40
  13  -2   0 1099.29   45.00
  13   2   1  266.77   24.30
  13   2   1  277.17   21.20
  13   2   1  306.97   24.40
  13  -2   1  302.37   23.80
  13  -2   1  287.77   23.00
  13   2   2  128.79   15.30
  13   2   2  148.89   18.90
  13  -2   2  155.78   16.90
  13  -2   2  164.98   17.50
  13   2   3   43.00   15.20
  13   2   3   32.80   10.20
  13  -2   3   46.20   11.30
  13  -2   3   20.40    9.70
  13   2   4  157.38   16.10
  13   2   4  239.28   22.20
  13  -2   4  177.08   18.40
  13  -2   4  196.68   20.90
  13  -2   4  202.08   20.80
  13   2   5  117.39   14.20
  13  -2   5  156.98   12.60
  13  -2   5  160.48   17.40
  13  -2   5  144.59   20.60
  13   2   6   33.00   11.40
  13  -2   6   27.50   10.10
  13  -2   6   27.00    9.90
  13   3 -12  116.19   15.30
  13   3 -12   80.39   15.20
  13  -3 -12  129.49   10.40
  13   3 -11   22.20   10.90
  13   3 -11   17.80    9.40
  13   3 -10  111.99   17.50
  13   3 -10  111.09   15.50
  13  -3 -10   97.79   15.30
  13   3  -9  328.57   27.00
  13   3  -9  322.77   27.70
  13  -3  -9  320.37   31.90
  13  -3  -9  304.97   18.90
  13   3  -8  215.88   26.50
 -13   3   8  247.38   17.60
  13   3  -8  192.78   20.90
  13  -3  -8  185.18   15.80
  13  -3  -8  186.08   20.60
  13   3  -7   36.40   10.70
  13   3  -7   73.09   16.60
  13  -3  -7   46.10   10.30
  13  -3  -7   65.39   12.70
  13   3  -6  163.18   17.70
  13   3  -6  158.08   18.60
 -13   3   6  167.88   17.40
  13  -3  -6  139.19   18.30
  13  -3  -6  152.08   10.60
  13   3  -5   30.90   12.20
 -13   3   5   68.89   12.20
  13  -3  -5   27.70   10.00
  13  -3  -5   51.89    6.80
  13   3  -4  232.68   21.40
  13   3  -4  243.68   21.50
  13  -3  -4  240.18   14.70
  13  -3  -4  231.58   22.20
  13   3  -3  119.09   15.90
  13   3  -3  125.09   16.20
 -13   3   3  138.69   16.50
  13  -3  -3  108.09   16.10
 -13   3   2   61.29   11.00
  13   3  -1  722.13   36.00
  13   3  -1  850.41   29.50
  13   3  -1  755.72   39.00
  13  -3  -1  751.32   33.20
  13  -3  -1  741.03   39.20
  13   3   0  125.39   16.90
  13   3   0  145.09   15.10
  13  -3   0  122.19   14.30
  13  -3   0  129.39   17.00
  13   3   1   61.49   11.90
  13   3   1   72.89   14.00
  13  -3   1   80.99   13.70
  13  -3   1   74.59   16.90
  13   3   2   88.19   22.10
  13   3   2   63.99   23.50
  13   3   2   79.19   12.80
  13  -3   2   71.89   14.40
  13   3   3   68.99   13.10
  13   3   3   81.09   15.10
  13  -3   3   47.10   13.70
  13  -3   3   82.09   14.60
  13  -3   3   77.09   13.60
  13   3   4  163.18   15.40
  13   3   4  129.89   20.20
  13  -3   4  163.08   23.90
  13  -3   4  152.58   20.60
  13  -3   4  139.09   20.20
  13   3   5   22.10    7.80
  13   3   5    3.00    7.80
  13  -3   5   31.00   10.80
  13  -3   5   18.70    7.30
  13  -3   5   18.00   10.50
  13   3   6  150.78   24.00
  13  -3   6  166.38   13.90
  13  -3   6  195.58   23.90
  13  -3   6  224.08   25.20
  13   4 -11   21.10   11.40
  13  -4 -11   21.20   11.40
  13   4 -10  171.78   21.60
  13   4 -10  204.88   19.50
  13  -4 -10  196.18   20.50
  13   4  -9  220.98   22.90
  13   4  -9  189.78   22.20
  13  -4  -9  182.28   21.10
  13   4  -8  160.48   20.90
  13   4  -8  180.18   19.50
  13  -4  -8  159.58   29.80
  13   4  -7  181.28   29.20
  13   4  -7  149.49   24.80
  13  -4  -7  149.99   19.20
 -13   4   6  207.68   18.90
  13   4  -6  250.87   22.10
  13  -4  -6  191.08   21.10
  13   4  -5  139.19   18.20
  13   4  -5  157.68   17.40
 -13   4   5  190.28   16.80
  13  -4  -5  130.09   17.40
 -13   4   4   81.39   14.90
  13   4  -4   45.30   12.00
  13   4  -4   58.79   13.30
  13  -4  -4   52.19   12.80
  13   4  -3  360.36   25.90
  13   4  -3  389.16   27.00
  13  -4  -3  332.77   16.70
  13   4  -2  198.38   20.80
 -13   4   2  257.67   22.30
  13   4  -2  213.58   19.90
  13  -4  -2  215.78   21.90
  13  -4  -2  202.28   14.70
  13   4  -1  124.99   15.50
  13   4  -1  115.09   16.70
  13  -4  -1  129.29   17.90
  13  -4  -1  122.59   12.90
  13   4   0  433.16   30.50
  13   4   0  392.76   25.00
  13  -4   0  387.16   29.30
  13  -4   0  412.56   23.50
  13   4   1   14.90   12.20
  13  -4   1   26.80    9.90
  13   4   2   -2.60    6.60
  13   4   2    1.80    6.00
  13   4   2   -0.50    6.30
  13  -4   2    4.20    6.90
  13  -4   2    6.10    8.40
  13   4   3  113.89   16.40
  13   4   3   96.29   20.70
  13   4   3   75.09   12.40
  13  -4   3  112.19   15.80
  13  -4   3   87.29   16.60
  13  -4   3   76.09   15.50
  13   4   4  218.08   16.10
  13  -4   4  182.18   23.60
  13  -4   4  215.98   22.50
  13   4   5  157.38   15.30
  13  -4   5  109.99   17.90
  13  -4   5  117.19   13.10
  13  -4   5  139.19   19.10
  13   5 -11   43.50   15.40
  13   5 -11   65.29   14.50
  13  -5 -11   32.40   13.50
  13   5 -10  204.88   24.70
  13   5 -10  219.08   23.20
  13  -5 -10  235.88   20.80
 -13  -5  10  160.98   19.90
  13   5  -9   -1.70    9.90
  13   5  -9   20.60   11.10
  13  -5  -9   15.20   10.80
 -13  -5   9   13.10    9.90
  13   5  -8   21.80    9.70
  13  -5  -8   29.90   13.00
  13   5  -7   22.20    8.80
  13  -5  -7    8.20    6.60
 -13  -5   7   10.60    8.10
  13   5  -6   76.99   16.50
  13   5  -6   78.89   15.90
 -13  -5   6   79.79   14.10
  13  -5  -6   90.19   17.70
  13   5  -5   82.19   12.00
  13   5  -4  467.35   33.10
  13   5  -4  440.26   30.20
  13  -5  -4  435.86   38.00
 -13  -5   4  433.46   26.70
  13   5  -3    3.40    9.20
  13   5  -3   -5.10    7.20
 -13   5   3   10.80    8.00
  13  -5  -3    6.90    8.50
  13   5  -2   -2.70    6.60
  13   5  -2    1.10    7.00
  13  -5  -2    5.30    8.20
  13   5  -1   67.69   10.50
  13   5  -1   59.49   15.80
  13  -5  -1   32.70   11.10
  13  -5  -1   58.09    9.10
  13   5   0   48.30   11.80
  13  -5   0   83.69   15.30
  13  -5   0   75.49   10.30
  13   5   1   78.49   12.30
  13   5   1   59.49   13.70
  13  -5   1   58.49   11.70
  13  -5   1   79.49   18.60
  13   5   2   91.29   13.70
  13   5   2   95.09   15.60
  13  -5   2  130.09   18.80
  13  -5   2   96.99   17.60
  13  -5   2  128.29   13.90
  13   5   3    6.10    9.80
  13   5   3   11.60    7.30
  13   5   3   15.40    8.10
  13  -5   3    6.60    7.80
  13  -5   3    7.90    7.90
  13   5   4  110.79   17.20
  13  -5   4  100.29   17.90
  13  -5   4   83.09   19.50
 -13  -6  10   50.39   13.60
  13   6  -9  258.57   25.60
  13   6  -9  224.18   24.40
  13  -6  -9  252.47   21.40
  13   6  -8  127.89   14.30
  13  -6  -8   95.89   14.80
  13   6  -7  104.39   19.20
  13   6  -7  104.59   18.60
  13  -6  -7  117.79   18.10
 -13  -6   7  104.89   15.90
  13   6  -6   57.79   13.20
  13   6  -6   68.59   13.00
  13  -6  -6   42.10   13.20
  13   6  -5  285.97   24.90
  13  -6  -5  285.47   24.70
 -13  -6   5  248.48   22.50
  13   6  -4   14.70   13.20
  13   6  -4    9.10    7.90
 -13   6   4   22.90    8.60
  13  -6  -4   11.10    8.60
 -13  -6   4    8.30    7.20
  13   6  -3  178.28   19.20
  13   6  -3  158.18   18.10
 -13  -6   3  123.59   15.70
  13  -6  -3  149.69   18.50
  13   6  -2    5.50    9.00
  13  -6  -2    4.40    8.70
  13   6  -1   28.20   10.80
  13   6  -1   31.10    9.30
  13  -6  -1   26.80   10.70
  13   6   0  117.39   14.80
  13   6   0  116.19   14.30
  13  -6   0  121.59   19.80
  13  -6   0  158.08   12.60
  13  -6   0  157.88   19.00
  13   6   1  133.89   16.40
  13   6   1  154.68   14.30
  13  -6   1  116.09   18.40
  13  -6   1  112.99   16.90
  13   6   2  223.58   17.30
  13   6   2  211.88   21.30
  13  -6   2  178.98   23.40
  13  -6   2  216.68   17.20
  13   6   3   25.70    9.30
  13   6   3   39.00   12.80
  13  -6   3   42.40   14.00
  13   7  -8   92.69   19.00
  13   7  -8  104.99   17.80
 -13  -7   8  100.59   16.60
  13  -7  -8  140.09   16.00
  13   7  -7    5.60    9.70
  13   7  -7   31.30    8.50
 -13  -7   7    4.30    9.80
  13  -7  -7   21.80    9.80
  13   7  -6   84.49   13.50
  13  -7  -6   51.29   12.50
 -13  -7   6   66.99   13.00
  13   7  -5  134.89   13.90
  13   7  -4  212.08   21.50
  13   7  -4  254.87   23.00
 -13  -7   4  158.78   18.60
  13  -7  -4  202.08   22.60
  13   7  -3  119.59   18.10
  13   7  -3  145.89   15.80
  13  -7  -3  107.09   18.30
 -13  -7   3  104.39   15.30
  13   7  -2   17.70   11.20
  13   7  -2   39.60   11.30
  13  -7  -2   23.40   11.10
  13   7  -1   45.00   12.50
 -13  -7   1   62.69   10.70
  13   7   0  327.07   24.60
  13   7   0  351.76   26.90
  13  -7   0  297.17   29.10
  13  -7   0  355.26   29.10
  13   7   1  343.17   28.40
  13   7   1  378.26   22.90
  13  -7   1  304.87   29.20
  13   8  -4   61.19   16.70
  13  -8  -4   79.59   16.20
  13  -8  -4   70.59   17.70
 -13  -8   4   67.49   13.30
  13   8  -3   68.59   15.90
 -13  -8   3  110.09   14.10
  13  -8  -3  105.09   18.40
  13  -8  -3   98.49   18.10
  13   8  -2   89.59   14.10
  13   8  -2   90.79   14.00
  13  -8  -2  100.39   16.50
 -13  -8   2  101.09   11.70
  14   0 -12   86.39   13.40
  14   0 -11   -2.50    7.10
  14   0 -11    1.70    6.10
  14   0 -10  145.59   18.00
  14   0 -10  152.38   18.20
  14   0  -9    7.90    6.30
  14   0  -9   11.60    8.40
  14   0  -8   47.00   17.00
  14   0  -8   37.90    9.90
  14   0  -7    5.50    6.30
  14   0  -7   -2.40    6.20
  14   0  -6   40.40   11.60
  14   0  -6   38.80   10.60
  14   0  -5    1.50    6.30
  14   0  -5    2.00    7.10
  14   0  -4  159.18   17.50
  14   0  -4  156.28   18.70
  14   0  -3   -1.80    5.90
  14   0  -3    0.30    5.40
  14   0  -2   76.39   14.90
  14   0  -2   69.59   15.30
  14   0  -2   88.39   13.50
  14   0   0  111.69   15.80
  14   0   0  107.39   14.50
  14   0   1    3.40    6.00
  14   0   1   -5.50    6.90
  14   0   1    5.40    6.70
  14   0   2  212.78   20.00
  14   0   2  171.78   18.20
  14   0   4  352.96   23.30
  14   0   4  310.97   27.80
  14   0   5    8.90    7.70
  14   0   5   16.10    7.20
  14   1 -12  307.77   28.00
  14   1 -12  302.17   23.90
  14  -1 -12  327.07   20.10
  14  -1 -12  359.96   25.70
  14   1 -11  229.68   20.50
  14   1 -11  212.68   22.10
  14  -1 -11  203.38   21.80
  14  -1 -11  228.98   17.60
  14   1 -10  522.45   29.10
  14   1 -10  453.25   33.00
  14  -1 -10  577.84   25.50
  14  -1 -10  439.56   32.40
  14  -1 -10  512.25   28.00
  14   1  -9  418.46   27.90
  14   1  -9  423.56   30.50
  14  -1  -9  388.46   25.80
  14  -1  -9  432.76   22.30
  14  -1  -9  379.26   29.50
  14   1  -8   37.80   11.40
  14  -1  -8   37.30    8.50
  14  -1  -8    6.50   12.90
  14   1  -7   40.70   11.20
  14   1  -7   35.90    9.80
  14  -1  -7   54.19   11.60
  14  -1  -7   26.30   10.50
  14   1  -6   90.79   16.30
  14  -1  -6   96.09   13.70
  14  -1  -6  116.99   17.00
  14   1  -5  121.19   16.80
  14  -1  -5  160.58   16.40
  14  -1  -5  175.98   20.10
  14   1  -4  139.49   17.80
  14   1  -4  134.19   16.30
  14  -1  -4  125.49   17.30
  14  -1  -4  118.59   15.80
  14   1  -3   72.89   12.70
  14   1  -3   69.59   14.00
  14  -1  -3   66.79   12.30
  14  -1  -3   52.39   12.70
  14  -1  -3   64.19   15.70
  14   1  -2  364.16   25.80
  14   1  -2  380.66   26.30
  14   1  -2  396.96   22.80
  14  -1  -2  349.47   25.70
  14  -1  -2  335.47   26.10
  14  -1  -2  354.26   24.10
  14   1  -1   19.70    8.90
  14   1  -1   18.90    9.90
  14   1  -1   39.40   10.70
  14  -1  -1   36.90   10.20
  14  -1  -1   46.20   12.70
  14   1   0  163.68   17.70
  14   1   0  145.09   18.10
  14   1   0  177.28   20.00
  14  -1   0  166.18   18.50
  14  -1   0  158.98   18.70
  14   1   1  125.09   18.60
  14   1   1  141.89   14.70
  14  -1   1  138.69   15.80
  14   1   2  104.19   20.80
  14   1   2  143.19   14.70
  14  -1   2   93.99   14.90
  14   1   3  167.88   21.20
  14   1   3  142.09   16.40
  14  -1   3  148.59   16.60
  14  -1   3  161.38   22.90
  14   1   4   29.40   13.50
  14  -1   4   33.00    9.90
  14  -1   4   25.90   12.20
  14  -1   4   10.00    9.50
  14   1   5   44.40   12.20
  14   1   5   61.29   11.80
  14  -1   5   53.69   11.10
  14  -1   5   48.20   11.50
  14  -1   5   39.40   12.20
  14   2 -12   80.79   14.50
  14   2 -12   89.89   16.40
  14  -2 -12  142.09   10.80
  14   2 -11   75.89   13.60
  14  -2 -11   94.29   11.40
  14   2 -10  133.39   18.40
  14  -2 -10  113.49   18.50
  14  -2 -10  126.29   14.10
  14   2  -9  184.88   20.30
  14   2  -9  215.48   23.50
  14  -2  -9  192.88   17.30
  14  -2  -9  204.38   21.70
  14  -2  -8  125.89   10.50
  14   2  -7   79.69   16.20
  14  -2  -7   59.59   11.80
  14  -2  -7   97.69   22.20
  14   2  -6  149.69   17.70
  14   2  -6  162.38   19.30
  14  -2  -6  155.48   19.20
  14  -2  -6  149.49   16.30
 -14   2   5  336.67   24.10
  14   2  -5  305.37   24.30
  14   2  -5  322.77   24.90
  14  -2  -5  309.17   22.40
  14  -2  -5  298.67   19.20
  14  -2  -5  311.67   25.80
  14   2  -4   69.59   15.10
 -14   2   4  142.79   20.10
  14  -2  -4  109.69   10.50
  14   2  -3  182.98   20.00
  14   2  -3  206.58   19.90
  14   2  -3  231.48   18.00
  14  -2  -3  195.78   20.20
  14  -2  -3  183.78   16.20
  14   2  -2   53.09   13.90
  14   2  -2   51.69   12.40
  14  -2  -2   44.10   11.70
  14  -2  -2   65.59   12.20
  14   2  -1  789.42   38.30
  14   2  -1  796.62   31.30
  14   2  -1  776.02   40.60
  14  -2  -1  802.62   41.60
  14  -2  -1  780.12   36.40
  14   2   0   66.79   13.60
  14   2   1  195.08   17.50
  14   2   1  149.69   19.30
  14   2   1  175.08   21.40
  14  -2   1  165.98   19.70
  14  -2   1  199.18   19.20
  14   2   2  148.09   14.90
  14   2   2  115.49   18.80
  14  -2   2  121.99   17.10
  14  -2   2  123.99   17.30
  14   2   3  102.39   14.20
  14  -2   3   84.89   16.90
  14  -2   3  132.19   29.60
  14  -2   4   87.39   12.00
  14   2   5  195.88   19.70
  14   2   5  213.88   17.20
  14   2   5  265.07   25.10
  14  -2   5  186.08   23.10
  14  -2   5  231.98   12.80
  14   3 -11  224.38   23.30
  14   3 -11  229.18   23.90
  14  -3 -11  251.97   15.90
  14  -3 -11  198.28   23.20
  14   3 -10  131.89   19.60
  14   3 -10  148.39   17.70
  14  -3 -10  121.59   12.80
  14  -3 -10  175.98   18.90
  14   3  -9  117.09   15.30
  14  -3  -9   87.89   12.10
  14  -3  -9   88.69   15.80
  14   3  -8   88.49   17.30
  14   3  -8   98.29   16.90
  14  -3  -8   89.29   12.50
  14  -3  -8  112.09   17.50
  14   3  -7    8.60   12.40
  14   3  -7   30.80   12.60
  14   3  -6   69.39   19.70
  14   3  -6   68.19   15.30
 -14   3   5  171.88   19.40
  14   3  -5  174.18   19.70
  14   3  -5  160.28   19.40
  14  -3  -5  192.58   12.40
  14  -3  -5  166.08   21.80
  14   3  -4   98.79   15.60
  14   3  -4   85.19   14.60
  14  -3  -4   79.99   10.80
  14  -3  -4   87.29   15.50
  14   3  -3  163.78   19.90
  14   3  -3  168.98   19.00
  14  -3  -3  187.58   14.80
  14  -3  -3  156.58   19.70
  14   3  -2  185.38   19.40
  14   3  -2  168.08   21.60
  14  -3  -2  205.58   14.90
  14  -3  -2  171.08   20.80
  14   3   0    9.00    7.10
  14   3   0   16.40    9.30
  14  -3   0    9.50   17.20
  14   3   1   35.50   10.70
  14   3   1   53.19   13.80
  14   3   1   55.19   10.90
  14  -3   1   38.70   14.20
  14  -3   1   37.90   11.30
  14   3   2  105.59   16.40
  14   3   2   72.29   13.40
  14   3   2   91.29   15.90
  14  -3   2  103.39   15.50
  14  -3   2  106.59   17.10
  14   3   3   81.09   12.80
  14  -3   3   87.59   15.60
  14  -3   3   75.99   18.40
  14   3   4  168.18   15.90
  14  -3   4   94.09   19.10
  14  -3   4  141.39   20.30
  14  -3   4  132.49   18.00
  14   3   5  183.38   16.90
  14   3   5  251.07   20.30
  14   3   5  196.08   25.00
  14  -3   5  249.08   22.00
  14  -3   5  225.28   15.90
  14   4 -11  109.59   15.10
  14  -4 -11  113.29   15.60
  14   4 -10  314.27   25.20
  14   4 -10  300.97   28.90
  14  -4 -10  232.48   23.80
  14   4  -9  260.97   26.60
  14  -4  -9  301.87   25.90
 -14   4   8  130.89   17.40
  14   4  -8  129.29   16.50
  14   4  -8  122.39   16.70
  14  -4  -8  102.89   20.60
  14   4  -7   40.90   14.40
  14   4  -7   32.30   10.30
  14  -4  -7   52.39   12.60
  14   4  -6  200.48   20.60
  14   4  -6  167.38   20.40
  14  -4  -6  161.98   19.90
  14   4  -5  372.86   34.70
  14   4  -5  317.47   26.70
  14  -4  -5  318.17   26.90
  14   4  -4   21.10   10.50
  14   4  -4   32.90   12.70
  14  -4  -4   27.10   11.60
  14   4  -3   65.19   11.70
  14  -4  -3   34.80   10.60
  14  -4  -3   48.50    7.40
  14  -4  -3   34.40   10.70
  14   4  -2   62.29   13.50
  14   4  -2   53.99   13.30
  14  -4  -2   69.39   10.50
  14  -4  -2   56.29   14.00
  14   4  -1  148.49   17.70
  14   4  -1  107.19   15.10
  14  -4  -1  130.89   17.90
  14  -4  -1  128.09   13.20
  14   4   0  431.36   27.00
  14   4   0  465.05   31.20
  14  -4   0  423.76   25.60
  14  -4   0  445.96   32.40
  14   4   1   83.99   12.10
  14   4   1   89.69   15.40
  14  -4   1   71.69   17.90
  14  -4   1  107.59   14.20
  14   4   2  126.89   18.90
  14   4   2   89.09   16.60
  14  -4   2  123.69   16.80
  14  -4   2   81.29   17.70
  14   4   3  144.69   14.50
  14  -4   3  107.99   17.50
  14  -4   3   92.19   18.20
  14  -4   3  114.39   17.50
  14   4   4  100.59   20.60
  14   4   4   92.39   13.70
  14  -4   4  137.19   19.00
  14   5 -10   63.89   14.20
  14   5 -10  109.69   18.70
  14  -5 -10   90.69   14.60
  14   5  -9   23.10   14.70
  14  -5  -9   26.80   11.40
  14   5  -8  154.88   19.10
  14   5  -8  166.78   20.50
  14   5  -7   87.89   17.00
  14   5  -7   69.89   18.60
  14  -5  -7   84.29   18.80
  14   5  -6    7.10    8.80
  14   5  -6   24.10   10.70
 -14   5   6    0.00   16.70
  14  -5  -6   34.30   10.00
  14   5  -5  127.39   18.70
  14   5  -5  146.19   18.20
  14  -5  -5  123.19   17.90
  14   5  -4  163.28   20.90
  14  -5  -4  158.08   20.40
  14   5  -3   19.20    8.80
  14  -5  -3   20.10   10.20
  14   5  -1  146.69   17.70
  14   5  -1  156.68   19.60
  14  -5  -1  201.48   14.40
  14  -5  -1  150.48   21.00
  14   5   0  385.36   24.20
  14   5   0  335.67   28.50
  14  -5   0  342.17   21.40
  14  -5   0  356.76   29.20
  14   5   1   11.80    8.90
  14  -5   1    4.80    8.50
  14  -5   1   17.70    9.90
  14  -5   1   22.80    7.40
  14   5   2  140.59   20.10
  14   5   2  109.29   17.70
  14   5   2  190.78   15.70
  14  -5   2  142.79   20.00
  14  -5   2  158.88   15.20
  14  -5   2  134.09   20.90
  14   5   3  165.38   18.20
  14   5   3  162.88   14.00
  14  -5   3  135.59   21.50
  14  -5   3  206.98   16.90
  14   6  -8   25.90   13.00
 -14  -6   8   38.00    9.90
  14   6  -7   68.39   17.20
  14   6  -7  114.79   17.20
  14  -6  -7  103.99   16.40
 -14  -6   7   62.29   14.50
  14   6  -6   78.59   15.30
  14   6  -6   48.70   14.80
 -14  -6   6   46.10   12.50
  14  -6  -6   26.40   12.90
  14   6  -5  346.67   28.60
 -14   6   5  395.36   27.50
  14   6  -5  391.76   27.90
  14  -6  -5  414.16   29.80
 -14  -6   5  411.46   27.40
  14   6  -4  182.68   21.70
  14  -6  -4  135.69   20.60
  14   6  -3   90.59   16.20
  14  -6  -3   77.59   17.10
  14   6  -2  111.89   15.90
  14   6  -2  100.19   15.30
  14  -6  -2   83.29   17.30
  14   6  -1  145.39   20.20
  14   6  -1  125.59   16.40
  14  -6  -1  145.09   20.00
  14   6   0  153.18   20.70
  14   6   0  142.99   17.00
  14  -6   0  123.49   21.10
  14  -6   0  152.48   21.40
  14   6   1  145.89   19.00
  14   6   1  175.88   16.50
  14  -6   1  107.89   23.00
  14  -6   1  130.99   20.50
  14  -6   1  190.98   14.40
  14   6   2  128.39   12.20
  14   6   2   94.49   17.90
  14  -6   2   86.59   17.90
  14  -6   2  113.39   12.40
 -14  -7   6   82.79   13.10
  14   7  -5  307.97   28.50
  14   7  -5  361.56   28.60
 -14  -7   5  299.47   26.30
  14  -7  -5  345.87   30.00
  14  -7  -4   55.69   16.30
 -14  -7   4   78.89   13.80
  14   7  -3   85.99   14.90
  14   7  -3   78.49   16.90
  14  -7  -3  107.79   18.30
 -14  -7   3  107.89   14.40
  14   7  -2   34.10    9.40
  14   7  -2   13.00    7.70
  14  -7  -2    8.80   10.50
  14   7  -1  123.99   19.40
  14  -7  -1  135.29   21.50
  14  -7  -1   95.39   22.10
  15   0 -11   29.40    9.10
  15   0  -9   66.29   12.40
  15   0  -8   21.90    8.80
  15   0  -8    2.30    6.80
  15   0  -7   -2.90    7.10
  15   0  -7    1.70    9.50
  15   0  -6  691.13   40.90
  15   0  -6  685.73   36.30
  15   0  -5    2.40    7.50
  15   0  -5   -7.00   13.10
  15   0  -4  433.26   29.20
  15   0  -4  444.76   31.20
  15   0  -3   -4.50    6.20
  15   0  -3   13.00    8.80
  15   0  -2  486.45   31.00
  15   0  -2  497.75   32.90
  15   0  -2  489.15   31.00
  15   0  -1    7.70    8.30
  15   0  -1    1.70    7.60
  15   0   0  253.27   21.80
  15   0   0  211.28   22.60
  15   0   1    7.00    7.80
  15   0   1    2.00    8.30
  15   0   2  184.98   18.60
  15   0   2  172.78   16.20
  15   0   3   14.80    7.10
  15   0   3   14.90    8.90
  15   0   4  297.27   25.40
  15   0   4  228.48   21.60
  15   1 -11  477.75   30.00
  15   1 -11  491.55   34.40
  15  -1 -11  516.75   28.70
  15  -1 -11  476.25   33.90
  15  -1 -11  553.74   33.20
  15   1 -10  161.08   19.70
  15   1 -10  160.98   19.70
  15  -1 -10  143.79   17.80
  15  -1 -10  197.18   21.50
  15   1  -9   25.60   13.50
  15   1  -9   19.30   12.10
  15  -1  -9   24.20    8.90
  15  -1  -9   13.20   10.00
  15   1  -8   45.70   13.90
  15   1  -8   70.79   12.20
  15  -1  -8   70.79   13.80
  15  -1  -8   60.39   12.50
  15   1  -7  194.78   18.60
  15   1  -7  146.29   19.50
  15  -1  -7  161.28   16.50
  15  -1  -7  121.39   18.20
  15   1  -6  253.57   24.70
  15  -1  -6  270.37   24.80
  15  -1  -6  241.68   21.20
  15   1  -5   29.90   18.70
  15   1  -5   52.29   13.40
  15  -1  -5   38.10   10.30
  15  -1  -5   30.60   13.00
  15   1  -4   39.60   11.30
  15   1  -4   26.20    9.70
  15  -1  -4   35.00    9.90
  15  -1  -4   50.49   12.00
  15  -1  -4   51.39   22.00
  15   1  -3   51.99   14.00
  15   1  -3   45.50   13.40
  15  -1  -3   71.79   12.90
  15  -1  -3   42.20   11.60
  15  -1  -3   52.49   13.10
  15   1  -2   45.40   13.30
  15   1  -2   49.60   11.60
  15   1  -2   41.60   17.40
  15  -1  -2   38.50   13.20
  15   1  -1  177.48   18.20
  15   1  -1  148.59   18.50
  15   1  -1  125.69   19.10
  15  -1  -1  170.48   17.60
  15  -1  -1  153.28   17.50
  15   1   0   31.20   10.70
  15   1   0   55.59   12.90
  15  -1   0   83.29   14.60
  15  -1   0   54.79   13.40
  15   1   1  142.09   16.30
  15   1   1  142.19   16.30
  15   1   2   89.59   14.20
  15   1   3   26.60    9.90
  15   1   3   26.80   12.40
  15  -1   3   32.40   12.20
  15   1   4   34.50   11.70
  15  -1   4   37.20   12.90
  15  -1   4   52.99   12.30
  15  -1   4   35.30   12.50
  15   2 -11  170.28   17.70
  15  -2 -11  201.38   18.70
  15  -2 -11  135.49   13.30
  15   2 -10  176.08   22.60
  15   2 -10  227.18   23.10
  15  -2 -10  233.28   17.60
  15  -2 -10  219.68   23.70
  15   2  -9  196.78   20.80
  15   2  -9  217.98   22.90
  15  -2  -9  204.28   18.20
  15  -2  -9  224.28   21.80
  15  -2  -9  253.67   15.70
  15   2  -8   53.49   13.90
  15  -2  -8   57.19   14.20
  15  -2  -8   71.89   11.90
  15   2  -7  153.18   20.60
  15   2  -7  130.99   19.20
  15  -2  -7  136.69   16.20
  15  -2  -7  183.28   20.70
  15   2  -6   98.89   16.60
  15   2  -6   88.99   28.20
  15  -2  -6  138.29   19.10
  15  -2  -6  102.59   18.80
  15  -2  -6  124.09   14.30
  15   2  -5   41.00   17.40
  15  -2  -5   26.90   10.60
  15  -2  -5   43.30    9.10
  15  -2  -5   41.10   13.20
  15   2  -4   32.90   15.60
  15   2  -4   61.09   14.50
  15  -2  -4   69.29   16.00
  15  -2  -4   68.49   11.90
  15   2  -3  135.09   18.30
  15   2  -3  148.59   19.80
  15  -2  -3  147.49   16.00
  15  -2  -3  136.19   18.90
  15   2  -2  503.25   26.70
  15   2  -2  495.05   30.60
  15   2  -2  506.25   33.10
  15  -2  -2  500.95   28.10
  15  -2  -2  520.55   35.70
  15   2  -1   84.19   15.90
  15   2  -1   74.99   13.90
  15  -2  -1   94.59   18.50
  15   2   0   73.49   16.30
  15   2   0   76.49   19.50
  15   2   0   44.30   12.10
  15  -2   0   69.19   13.60
  15  -2   0   58.39   14.40
  15   2   1   64.39   14.90
  15   2   1   71.79   16.20
  15  -2   1   68.19   15.90
  15   2   2   22.80    8.80
  15   2   3  461.15   31.80
  15  -2   3  365.16   27.10
  15  -2   3  459.25   22.30
  15  -2   3  375.56   28.90
  15   2   4  266.17   28.80
  15   2   4  314.87   21.20
  15  -2   4  287.47   27.70
  15  -2   4  203.48   26.50
  15  -2   4  280.87   24.30
  15   3 -10  288.17   28.60
  15   3 -10  297.17   26.00
  15  -3 -10  311.67   19.80
 -15   3   9  113.09   20.10
  15   3  -9   82.69   13.00
  15   3  -9   99.69   14.80
  15  -3  -9  125.79   12.30
 -15   3   8   17.40   13.50
  15   3  -8   38.20   12.80
  15   3  -8   28.20   13.60
  15  -3  -8   33.20   10.00
  15   3  -7  115.39   17.50
  15  -3  -7  123.89   18.70
  15   3  -6   63.59   14.60
  15   3  -6   91.19   16.40
  15  -3  -6   55.59   13.10
  15   3  -5  196.38   20.00
  15   3  -5  185.18   21.70
  15  -3  -5  209.38   14.30
  15  -3  -5  221.08   23.80
  15   3  -3  154.98   18.90
  15   3  -3  164.28   19.90
  15  -3  -3  186.48   14.70
  15   3  -2   77.29   15.90
  15  -3  -2   85.49   12.40
  15  -3  -2   65.69   15.60
  15   3  -1   43.80   13.40
  15   3  -1   32.50    9.20
  15  -3  -1   27.40   13.20
  15  -3  -1   60.19   10.60
  15   3   0   71.39   12.40
  15   3   0   64.19   15.40
  15  -3   0   68.09   13.90
  15  -3   0   70.59   16.20
  15   3   1   17.50    8.90
  15   3   1   22.50   11.00
  15   3   1   13.40    7.40
  15  -3   1   26.70   11.50
  15   3   2   37.80   12.10
  15   3   2   27.00    9.50
  15  -3   2   36.90   10.50
  15  -3   3   67.29   12.30
  15   4 -10   91.39   23.00
  15  -4 -10  125.89   18.80
  15   4  -9  240.18   26.10
  15   4  -9  268.07   24.10
  15  -4  -9  271.37   25.20
  15   4  -8    9.80    9.60
  15  -4  -8    8.40   11.50
  15   4  -7   39.00   13.60
  15   4  -7   30.00   11.80
  15  -4  -7   36.00   11.50
  15   4  -6   15.10    9.10
  15   4  -6   13.70   11.20
  15  -4  -6   39.60   10.90
  15   4  -5  358.76   27.80
  15   4  -5  367.46   28.60
  15  -4  -5  328.57   29.30
  15   4  -4  145.09   16.70
  15   4  -4  137.59   18.60
  15  -4  -4  154.38   11.00
  15  -4  -4  122.29   20.30
  15  -4  -3   76.49    8.60
  15   4  -2  146.89   18.60
  15   4  -2  130.59   19.10
  15  -4  -2  168.88   14.40
  15  -4  -2  177.98   19.70
  15   4  -1  289.87   23.00
  15   4  -1  244.48   25.10
  15  -4  -1  256.37   24.10
  15  -4  -1  268.97   19.20
  15   4   0  136.39   17.70
  15   4   0  109.19   15.10
  15  -4   0  130.49   19.80
  15  -4   0  168.48   16.00
  15   4   1   84.39   16.10
  15   4   1   80.29   15.10
  15  -4   1   93.69   21.40
  15   4   2  117.09   21.20
  15   4   2  107.79   14.80
  15   4   2  120.99   17.90
  15  -4   2  146.59   19.00
  15  -4   2  108.59   19.80
  15   5  -9  168.58   19.80
  15   5  -8  241.48   25.10
  15   5  -8  204.08   24.10
  15  -5  -8  258.67   23.80
  15   5  -7  126.99   15.80
  15   5  -7   92.29   16.90
  15  -5  -7   80.09   16.20
  15   5  -6  162.88   20.80
  15   5  -6  204.58   22.30
  15  -5  -6  179.68   19.60
  15   5  -5    0.80   11.40
  15   5  -5    3.00    9.00
  15  -5  -5    2.40    9.30
  15   5  -4   96.49   14.60
  15   5  -4   72.59   15.60
  15  -5  -4   74.99   15.70
  15   5  -3   73.09   17.90
  15   5  -3  100.49   14.30
  15  -5  -3   63.79   14.90
  15   5  -2  101.99   17.80
  15  -5  -2   88.99   18.30
  15   5  -1   65.49   12.90
  15   5   0   86.09   14.80
  15  -5   0   62.99   14.20
  15   5   1   93.29   12.90
  15   5   1  116.49   15.00
  15  -5   1  132.39   11.40
  15  -5   1   76.39   16.90
  15   6  -7   88.09   15.30
  15  -6  -7   72.89   14.90
  15   6  -6  260.77   22.80
  15  -6  -6  222.18   24.00
  15   6  -5   24.50    9.20
  15   6  -5   -5.70   10.30
  15  -6  -5    6.00   10.70
  15   6  -4   24.30   12.10
  15   6  -4   39.30   14.30
  15  -6  -4   54.49   16.60
  15   6  -3   84.89   15.00
  15   6  -3   86.69   13.30
  15  -6  -3   57.89   16.80
  15   6  -2  114.79   17.90
  15   6  -2  146.69   20.50
  15  -6  -2  147.79   21.50
  15   6  -1  101.69   17.70
  15   6  -1   91.89   14.70
  15  -6  -1  114.89   18.90
  16   0 -10  252.87   25.00
  16   0 -10  273.17   22.80
  16   0  -9   10.50   11.20
  16   0  -9   28.50   10.80
  16   0  -8    2.60   13.40
  16   0  -8   40.40   10.20
  16   0  -7    3.50    7.80
  16   0  -6  381.06   38.90
  16   0  -6  391.36   31.10
  16   0  -5   25.00    8.70
  16   0  -5   14.20    8.60
  16   0  -4  112.79   18.60
  16   0  -4  139.19   18.40
  16   0  -3    3.70   10.00
  16   0  -3    5.90    7.20
  16   0  -3    5.90    7.00
  16   0  -2  904.41   45.10
  16   0  -2  967.10   47.40
  16   0  -2  907.11   46.30
  16   0   0  157.38   26.20
  16   0   0  208.68   21.00
  16   0   1    3.40    8.80
  16   0   2  374.86   26.30
  16   0   2  388.56   30.60
  16   0   3    3.20   10.60
  16   0   3   32.40    8.50
  16   1 -10  159.18   22.90
  16   1 -10  198.18   20.90
  16  -1 -10  196.88   21.70
  16  -1 -10  233.58   24.50
  16  -1 -10  200.78   20.50
  16   1  -9   22.60    9.40
  16   1  -9   19.40    8.40
  16  -1  -9    9.20    7.10
  16  -1  -9   24.50    6.70
  16   1  -8  115.99   16.40
  16   1  -8   64.99   14.40
  16  -1  -8   72.59   19.30
  16  -1  -8   87.99   13.30
  16   1  -7    6.00    9.70
  16   1  -7   -3.90    7.20
  16  -1  -7   15.80    9.50
  16  -1  -7   12.90    6.70
  16   1  -6    6.70   10.60
  16   1  -6    0.60    5.70
  16  -1  -6    1.80    8.30
  16  -1  -6   16.80    8.50
  16   1  -5   20.30    9.40
  16   1  -5   36.00   12.70
  16  -1  -5   30.60   10.50
  16  -1  -5   28.90   12.90
  16   1  -4   -1.90    9.10
  16  -1  -4   15.70    7.80
  16  -1  -4   24.10   11.70
  16  -1  -4    6.40    9.90
  16   1  -3  152.68   18.80
  16  -1  -3  119.49   22.50
  16   1  -2  526.35   34.60
  16   1  -2  512.75   32.20
  16   1  -2  465.25   33.20
  16  -1  -2  562.84   31.10
  16  -1  -2  499.75   33.90
  16   1  -1  437.06   31.80
  16   1  -1  417.86   38.40
  16   1  -1  442.96   31.30
  16  -1  -1  432.86   31.00
  16  -1  -1  427.36   29.90
  16   1   0   -3.40    8.80
  16   1   0    8.30    8.80
  16  -1   0   16.40   10.30
  16  -1   0   28.00   11.30
  16   1   1   29.70    8.70
  16  -1   1   -0.40    8.60
  16  -1   1   16.00    8.40
  16   1   2   88.89   16.10
  16   2 -10  170.48   19.10
  16   2 -10  115.09   19.80
  16  -2 -10  186.68   15.70
  16  -2 -10  117.79   20.30
  16   2  -9   54.89   14.20
  16   2  -9   41.50   15.40
  16  -2  -9   84.69   15.20
  16  -2  -9   58.09   12.30
  16   2  -8   94.39   13.40
  16  -2  -8   71.59   13.70
  16  -2  -8  103.49   16.20
  16   2  -7   59.99   11.80
  16   2  -7   77.89   14.50
  16  -2  -7   40.00   13.30
  16   2  -6  326.27   28.10
  16   2  -6  349.07   28.50
  16  -2  -6  331.67   20.40
  16  -2  -6  347.17   24.30
  16  -2  -6  336.47   29.60
  16   2  -5  118.39   18.30
  16   2  -5  154.88   17.40
  16  -2  -5   84.69   17.60
  16   2  -4   77.29   12.70
  16  -2  -4   73.59   13.90
  16  -2  -4   71.29   11.50
  16  -2  -3   59.99   12.00
  16   2  -2  127.99   18.30
  16   2  -2  170.38   19.30
  16   2  -1  457.25   35.70
  16   2  -1  505.55   35.20
  16   2  -1  425.46   32.20
  16   2   0   84.79   14.10
  16   2   0  105.49   19.40
  16   2   1   16.00   14.70
  16  -2   1   26.10    9.90
  16   2   2  221.48   25.90
  16   2   2  297.57   24.90
  16  -2   2  316.77   22.80
  16  -2   2  223.98   23.50
  16   3  -9   30.30    9.00
  16   3  -9   22.70   14.10
  16  -3  -9   36.60   11.90
  16   3  -8   31.40   12.60
  16   3  -8   47.70   12.50
  16  -3  -8   52.79   13.60
  16   3  -7   72.79   17.30
  16  -3  -7  107.99   17.80
  16   3  -6   26.70   12.40
  16   3  -6   36.50   13.70
  16  -3  -6   41.20   13.10
  16   3  -5  169.48   19.50
  16   3  -5  192.18   21.50
  16  -3  -5  114.79   19.60
  16   3  -4   27.10    9.70
  16   3  -4   30.70    9.70
  16  -3  -4   28.90   11.30
  16   3  -3   96.39   15.00
  16   3  -3   70.59   15.60
  16  -3  -3  122.19   17.10
  16  -3  -3  107.39   13.00
  16   3  -2   94.49   12.70
  16  -3  -2   85.59   11.50
  16   3  -1  109.19   14.20
  16  -3  -1  164.28   14.00
  16   3   0  109.19   15.50
  16  -3   0   92.29   13.60
  16   3   1   61.79   15.10
  16   3   1   81.19   15.10
  16  -3   1   52.19   12.60
  16   4  -8   15.10    9.50
  16   4  -8   25.00   11.20
  16  -4  -8   13.40    7.60
  16   4  -7  165.18   22.10
  16   4  -7  213.58   23.20
  16  -4  -7  174.18   22.40
  16   4  -6   36.50   13.90
  16  -4  -6   62.79   15.10
  16   4  -5   90.19   16.20
  16  -4  -5  128.49   18.70
  16   4  -4  104.39   12.80
  16   4  -4   85.79   15.10
  16  -4  -3  194.88   12.30
  16   4  -2  345.67   25.90
  16   4  -2  379.46   30.20
  16  -4  -2  389.26   21.40
  16  -4  -2  339.67   29.40
  16   4   0   38.50   13.40
  16   4   0   27.60   11.70
  16   4   0   22.10   12.30
  16  -4   0   46.00   13.30
  16   5  -6   67.59   15.40
  16   5  -6   90.49   17.90
  16  -5  -6  112.79   19.50
  16   5  -5  129.79   18.40
  16   5  -5  106.79   17.30
  16  -5  -5  111.19   24.00
  16   5  -4   15.10   10.90
  16   5  -4   -4.50    8.70
  16  -5  -4  -14.30    8.00
  16   5  -3   83.19   19.20
  16   5  -3   92.19   15.60
  16  -5  -3   81.19   19.20
  16   5  -2   86.59   16.00
  16   5  -2   75.69   18.20
  16  -5  -2  115.39   19.20
  16   5  -1   98.79   17.70
  16   5  -1  101.19   15.20
  16  -5  -1   97.59   17.30
  16  -5  -1  113.39   12.90
  17   0  -9  -11.20    9.20
  17   0  -9    9.20    6.80
  17   0  -8   55.79   13.40
  17   0  -8   82.69   14.60
  17   0  -7    8.20    8.50
  17   0  -7   15.50    8.40
  17   0  -6  142.99   18.70
  17   0  -5   60.79   12.40
  17   0  -4  263.27   23.60
  17   0  -4  294.47   24.90
  17   0  -4  270.07   26.50
  17   0  -3    1.00    8.00
  17   0  -3   -6.20    7.60
  17   0  -3    6.00    8.30
  17   0  -2  382.36   30.10
  17   0  -2  502.95   31.00
  17   0  -1    3.50    7.50
  17   0   0  158.28   20.90
  17   0   0  203.98   21.10
  17   0   1    2.20    8.40
  17   0   1   15.20    8.00
  17   1  -9   23.50   12.70
  17  -1  -9   48.60   10.80
  17  -1  -9   29.00   13.50
  17   1  -8   94.89   18.60
  17   1  -8  103.89   19.10
  17  -1  -8  127.09   15.10
  17   1  -7   97.09   18.60
  17   1  -7   69.59   14.70
  17  -1  -7   63.29   17.70
  17   1  -6  268.67   21.80
  17   1  -6  199.88   20.40
  17  -1  -6  191.18   20.60
  17  -1  -6  241.98   18.30
  17  -1  -5   66.59   12.70
  17   1  -4   40.60   11.30
  17   1  -4   26.90    9.90
  17  -1  -4   27.60    9.30
  17  -1  -4   46.60   12.50
  17   1  -3  404.46   30.90
  17   1  -3  339.07   28.60
  17  -1  -3  425.66   27.80
  17  -1  -3  355.06   30.60
  17   1  -2  257.77   23.50
  17   1  -2  245.08   21.60
  17   1  -2  252.57   22.70
  17  -1  -2  269.47   23.00
  17  -1  -2  190.28   22.60
  17   1   0   73.29   15.10
  17  -1   0   93.49   14.90
  17   2  -8  197.88   22.70
  17   2  -8  229.98   19.50
  17  -2  -8  243.98   15.50
  17   2  -7  248.18   24.00
  17  -2  -7  253.87   21.70
  17  -2  -7  204.48   15.80
  17  -2  -7  191.38   23.80
  17   2  -6  142.89   19.20
  17   2  -6  159.88   20.30
  17  -2  -6  164.18   20.90
  17   2  -5   33.40   13.60
  17   2  -5   44.40   12.30
  17  -2  -5   44.40   14.60
  17   2  -4   49.20   10.90
  17   2  -3   82.29   12.50
  17   2  -3   66.29   15.60
  17   2  -2   65.99   16.50
  17   2  -2   83.79   14.80
  17   2  -1   13.20    9.10
  17   2  -1   10.50   12.00
  17   2  -1   28.60   10.00
  17  -2  -1   24.40   10.40
  17  -2   0   39.00    9.90
  17  -2   0   36.80   15.20
  17   3  -7  406.66   31.80
  17   3  -7  340.47   31.40
  17  -3  -7  377.96   33.60
  17   3  -6  159.88   22.10
  17   3  -6  175.08   22.10
  17  -3  -6  228.48   12.90
  17   3  -5   50.79   15.10
  17   3  -5   52.69   15.00
  17  -3  -5   31.60    9.20
  17   3  -4   49.30   11.80
  17   3  -4   72.09   14.00
  17   3  -3   33.60   12.80
  17   3  -3   40.70   11.70
  17  -3  -3   30.80   11.00
  17   3  -2   46.90   13.70
  17  -3  -2   82.69   12.40
  17   3  -1   29.30    8.30
  17  -3  -1   42.40   13.60
  17   4  -5    7.30   12.20
  17  -4  -5   20.80   14.20
  17   4  -4  118.19   16.80
  17   4  -3   91.79   16.30
  17  -4  -3  153.98   18.00
  18   0  -6  442.86   31.50
  18   0  -6  443.66   33.50
  18   0  -5   -9.90    9.50
  18   0  -4   98.19   15.40
  18   0  -4   77.49   16.00
  18   0  -4  105.39   17.50
  18   1  -6  127.09   20.20
  18   1  -6  111.69   18.30
  18  -1  -6  130.79   18.70
  18  -1  -6  170.88   18.10
  18   1  -5   87.49   16.90
  18   1  -5  115.99   17.50
  18  -1  -5  132.89   19.90
  18  -1  -5  117.69   17.60
  18   1  -4    1.10    8.20
  18   1  -4   13.30    8.00
  18  -1  -4   15.60    9.50
  18  -1  -4   18.20   11.50
  18   1  -3  183.68   20.00
  18   1  -3  154.08   19.00
  18  -1  -3  146.59   20.40
   0   0   0    0.00    0.00
;
_shelx_hkl_checksum              7337
_olex2_submission_special_instructions 'No special instructions were received'
loop_
_space_group_symop_operation_xyz
'x, y, z'
'x, -y, z+1/2'
loop_
_atom_site_label
_atom_site_type_symbol
_atom_site_fract_x
_atom_site_fract_y
_atom_site_fract_z
_atom_site_U_iso_or_equiv
_atom_site_adp_type
_atom_site_occupancy
_atom_site_site_symmetry_order
_atom_site_calc_flag
_atom_site_refinement_flags_posn
_atom_site_refinement_flags_adp
_atom_site_refinement_flags_occupancy
_atom_site_disorder_assembly
_atom_site_disorder_group
F1 F 0.3958(2) 1.1420(3) 0.4967(2) 0.0203(6) Uani 1 1 d . . . . .
F2 F 0.7496(2) -0.0592(3) 0.4003(2) 0.0225(6) Uani 1 1 d . . . . .
F3 F 0.6087(2) 0.0934(3) 0.2236(2) 0.0212(6) Uani 1 1 d . . . . .
F4 F 0.7863(2) 0.0211(3) 0.6403(2) 0.0188(6) Uani 1 1 d . . . . .
F5 F 0.2540(2) 1.1685(3) 0.2751(3) 0.0252(7) Uani 1 1 d . . . . .
F6 F 0.2317(2) 0.9411(4) 0.1057(2) 0.0305(7) Uani 1 1 d . . . . .
O1 O 0.3927(2) 0.5734(4) 0.6208(3) 0.0156(6) Uani 1 1 d . . . . .
O2 O 0.6959(2) 0.6077(4) 0.3734(3) 0.0161(6) Uani 1 1 d . . . . .
C1 C 0.7185(3) 0.1034(5) 0.5529(4) 0.0136(9) Uani 1 1 d . . . . .
C2 C 0.6898(3) 0.6192(4) 0.4781(4) 0.0113(8) Uani 1 1 d . . . . .
C3 C 0.5980(3) 0.3110(5) 0.4941(4) 0.0109(8) Uani 1 1 d . . . . .
C4 C 0.6283(3) 0.1409(5) 0.3424(4) 0.0145(9) Uani 1 1 d . . . . .
C5 C 0.7005(3) 0.0601(5) 0.4318(4) 0.0143(8) Uani 1 1 d . . . . .
C6 C 0.7814(3) 0.6426(5) 0.5867(4) 0.0112(8) Uani 1 1 d . . . . .
C7 C 0.3654(3) 0.5501(5) 0.5089(4) 0.0118(8) Uani 1 1 d . . . . .
C8 C 0.5773(3) 0.2657(5) 0.3703(4) 0.0116(8) Uani 1 1 d . . . . .
H8 H 0.5288 0.3203 0.3068 0.014 Uiso 1 1 calc R . . . .
C9 C 0.4909(3) 0.6270(4) 0.3889(3) 0.0086(8) Uani 1 1 d . . . . .
H9 H 0.5082 0.5895 0.3140 0.010 Uiso 1 1 calc R . . . .
C10 C 0.3855(3) 1.0263(5) 0.4143(4) 0.0139(8) Uani 1 1 d . . . . .
C11 C 0.6686(3) 0.2279(5) 0.5853(4) 0.0115(8) Uani 1 1 d . . . . .
H11 H 0.6825 0.2564 0.6696 0.014 Uiso 1 1 calc R . . . .
C12 C 0.4342(3) 0.7780(5) 0.3590(4) 0.0106(8) Uani 1 1 d . . . . .
C13 C 0.2596(3) 0.5874(4) 0.4325(4) 0.0113(8) Uani 1 1 d . . . . .
C14 C 0.5863(3) 0.6121(5) 0.5022(3) 0.0091(8) Uani 1 1 d . . . . .
H14 H 0.5832 0.6882 0.5672 0.011 Uiso 1 1 calc R . . . .
C15 C 0.4460(3) 0.8964(5) 0.4452(4) 0.0110(8) Uani 1 1 d . . . . .
H15 H 0.4950 0.8879 0.5241 0.013 Uiso 1 1 calc R . . . .
C16 C 0.7770(3) 0.6299(5) 0.7068(4) 0.0156(9) Uani 1 1 d . . . . .
H16 H 0.7151 0.5991 0.7217 0.019 Uiso 1 1 calc R . . . .
C17 C 0.3031(4) 0.9245(6) 0.2164(4) 0.0199(10) Uani 1 1 d . . . . .
C18 C 0.9524(4) 0.7120(6) 0.7869(4) 0.0203(10) Uani 1 1 d . . . . .
C19 C 0.3134(3) 1.0424(5) 0.3018(4) 0.0169(9) Uani 1 1 d . . . . .
C20 C 0.2199(3) 0.5393(5) 0.3092(4) 0.0134(8) Uani 1 1 d . . . . .
H20 H 0.2602 0.4772 0.2725 0.016 Uiso 1 1 calc R . . . .
C21 C 0.8737(3) 0.6870(5) 0.5658(4) 0.0142(8) Uani 1 1 d . . . . .
H21 H 0.8788 0.6920 0.4841 0.017 Uiso 1 1 calc R . . . .
C22 C 0.5466(3) 0.4491(4) 0.5309(4) 0.0094(8) Uani 1 1 d . . . . .
H22 H 0.5457 0.4418 0.6186 0.011 Uiso 1 1 calc R . . . .
C23 C 0.4392(3) 0.4908(5) 0.4428(4) 0.0104(8) Uani 1 1 d . . . . .
H23 H 0.4094 0.4086 0.3809 0.012 Uiso 1 1 calc R . . . .
C24 C 0.3626(3) 0.7945(5) 0.2421(4) 0.0143(9) Uani 1 1 d . . . . .
H24 H 0.3555 0.7165 0.1814 0.017 Uiso 1 1 calc R . . . .
C25 C 0.9576(3) 0.7235(6) 0.6659(4) 0.0199(10) Uani 1 1 d . . . . .
H25 H 1.0193 0.7568 0.6517 0.024 Uiso 1 1 calc R . . . .
C26 C 0.1988(4) 0.6797(6) 0.4836(4) 0.0187(9) Uani 1 1 d . . . . .
H26 H 0.2244 0.7132 0.5668 0.022 Uiso 1 1 calc R . . . .
C27 C 0.0620(4) 0.6747(6) 0.2916(4) 0.0204(10) Uani 1 1 d . . . . .
C28 C 0.8626(3) 0.6619(6) 0.8062(4) 0.0190(10) Uani 1 1 d . . . . .
H28 H 0.8591 0.6490 0.8881 0.023 Uiso 1 1 calc R . . . .
C29 C 0.1014(4) 0.7228(6) 0.4139(4) 0.0227(10) Uani 1 1 d . . . . .
H29 H 0.0610 0.7857 0.4499 0.027 Uiso 1 1 calc R . . . .
C30 C 0.1219(3) 0.5826(5) 0.2413(4) 0.0186(9) Uani 1 1 d . . . . .
H30 H 0.0954 0.5482 0.1584 0.022 Uiso 1 1 calc R . . . .
C31 C -0.0448(4) 0.7225(7) 0.2162(5) 0.0300(12) Uani 1 1 d . . . . .
H31A H -0.0836 0.7559 0.2718 0.045 Uiso 1 1 calc GR . . . .
H31B H -0.0795 0.6350 0.1668 0.045 Uiso 1 1 calc GR . . . .
H31C H -0.0402 0.8077 0.1613 0.045 Uiso 1 1 calc GR . . . .
C32 C 1.0446(4) 0.7532(7) 0.8947(5) 0.0307(12) Uani 1 1 d . . . . .
H32A H 1.0888 0.6627 0.9188 0.046 Uiso 1 1 calc GR . . . .
H32B H 1.0215 0.7869 0.9647 0.046 Uiso 1 1 calc GR . . . .
H32C H 1.0829 0.8365 0.8703 0.046 Uiso 1 1 calc GR . . . .
loop_
_atom_site_aniso_label
_atom_site_aniso_U_11
_atom_site_aniso_U_22
_atom_site_aniso_U_33
_atom_site_aniso_U_23
_atom_site_aniso_U_13
_atom_site_aniso_U_12
F1 0.0284(15) 0.0129(12) 0.0214(14) -0.0064(11) 0.0100(12) -0.0001(11)
F2 0.0308(16) 0.0156(13) 0.0206(14) -0.0001(11) 0.0065(12) 0.0112(12)
F3 0.0318(16) 0.0196(14) 0.0109(12) -0.0015(11) 0.0042(11) 0.0107(12)
F4 0.0192(14) 0.0165(13) 0.0168(12) 0.0038(11) -0.0008(11) 0.0075(11)
F5 0.0325(17) 0.0195(14) 0.0229(14) 0.0058(12) 0.0070(13) 0.0133(12)
F6 0.0353(18) 0.0291(16) 0.0166(14) 0.0003(12) -0.0084(12) 0.0143(14)
O1 0.0145(16) 0.0208(16) 0.0111(14) 0.0010(12) 0.0032(12) 0.0026(12)
O2 0.0170(16) 0.0206(15) 0.0119(15) -0.0021(12) 0.0062(13) -0.0016(13)
C1 0.010(2) 0.0111(19) 0.018(2) 0.0033(17) 0.0016(17) 0.0008(16)
C2 0.011(2) 0.0053(18) 0.017(2) 0.0034(16) 0.0034(17) 0.0025(15)
C3 0.010(2) 0.0101(19) 0.015(2) -0.0009(15) 0.0064(16) -0.0019(15)
C4 0.019(2) 0.014(2) 0.0109(19) 0.0008(16) 0.0038(17) -0.0004(17)
C5 0.016(2) 0.0077(18) 0.020(2) -0.0010(16) 0.0055(17) -0.0030(16)
C6 0.012(2) 0.0066(17) 0.0137(19) 0.0012(15) 0.0012(16) 0.0015(15)
C7 0.011(2) 0.0071(17) 0.017(2) 0.0027(15) 0.0042(16) -0.0008(15)
C8 0.010(2) 0.0116(19) 0.0116(19) 0.0040(15) 0.0009(16) 0.0023(15)
C9 0.011(2) 0.0083(18) 0.0072(18) 0.0002(14) 0.0029(15) 0.0011(15)
C10 0.020(2) 0.0087(18) 0.017(2) -0.0031(16) 0.0111(18) -0.0026(16)
C11 0.016(2) 0.0106(18) 0.0081(18) 0.0020(15) 0.0033(16) -0.0020(16)
C12 0.010(2) 0.0093(18) 0.0134(19) 0.0036(15) 0.0054(16) 0.0017(15)
C13 0.012(2) 0.0078(17) 0.014(2) 0.0039(15) 0.0050(16) 0.0005(16)
C14 0.0107(19) 0.0100(18) 0.0063(17) -0.0006(14) 0.0019(15) 0.0016(15)
C15 0.013(2) 0.0126(19) 0.0065(18) -0.0006(15) 0.0019(15) -0.0018(16)
C16 0.014(2) 0.016(2) 0.018(2) 0.0025(17) 0.0064(17) 0.0034(17)
C17 0.024(3) 0.022(2) 0.012(2) 0.0042(18) 0.0020(18) 0.0002(19)
C18 0.014(2) 0.024(2) 0.018(2) -0.0026(19) -0.0014(18) 0.0007(19)
C19 0.017(2) 0.016(2) 0.020(2) 0.0054(17) 0.0077(18) 0.0019(17)
C20 0.015(2) 0.0132(19) 0.013(2) -0.0010(17) 0.0063(17) 0.0004(17)
C21 0.017(2) 0.013(2) 0.014(2) 0.0044(16) 0.0063(17) 0.0063(17)
C22 0.0094(19) 0.0100(18) 0.0090(18) 0.0009(15) 0.0030(15) -0.0005(15)
C23 0.012(2) 0.0110(19) 0.0073(18) 0.0020(15) 0.0010(15) -0.0018(15)
C24 0.015(2) 0.012(2) 0.013(2) -0.0008(16) 0.0005(17) 0.0015(16)
C25 0.011(2) 0.024(2) 0.025(2) 0.003(2) 0.0066(19) 0.0001(18)
C26 0.020(2) 0.026(2) 0.011(2) 0.0014(18) 0.0062(18) 0.0040(19)
C27 0.012(2) 0.025(2) 0.023(2) 0.009(2) 0.0039(19) 0.0020(19)
C28 0.019(2) 0.024(2) 0.013(2) 0.0008(17) 0.0033(18) 0.0015(19)
C29 0.018(2) 0.027(3) 0.024(2) 0.001(2) 0.009(2) 0.008(2)
C30 0.018(2) 0.024(2) 0.011(2) 0.0013(18) -0.0009(17) -0.0045(19)
C31 0.016(2) 0.044(3) 0.026(3) 0.006(2) 0.000(2) 0.006(2)
C32 0.018(3) 0.053(4) 0.018(2) -0.005(2) 0.000(2) -0.001(2)
loop_
_atom_type_symbol
_atom_type_description
_atom_type_scat_dispersion_real
_atom_type_scat_dispersion_imag
_atom_type_scat_source
C C 0.0033 0.0016 'International Tables Vol C Tables 4.2.6.8 and 6.1.1.4'
H H 0.0000 0.0000 'International Tables Vol C Tables 4.2.6.8 and 6.1.1.4'
F F 0.0171 0.0103 'International Tables Vol C Tables 4.2.6.8 and 6.1.1.4'
O O 0.0106 0.0060 'International Tables Vol C Tables 4.2.6.8 and 6.1.1.4'
loop_
_geom_angle_atom_site_label_1
_geom_angle_atom_site_label_2
_geom_angle_atom_site_label_3
_geom_angle
_geom_angle_site_symmetry_1
_geom_angle_site_symmetry_3
_geom_angle_publ_flag
F4 C1 C5 118.1(4) . . ?
F4 C1 C11 120.5(4) . . ?
C5 C1 C11 121.4(4) . . ?
O2 C2 C6 122.2(4) . . ?
O2 C2 C14 120.4(4) . . ?
C6 C2 C14 117.3(3) . . ?
C8 C3 C22 121.7(4) . . ?
C11 C3 C8 119.3(4) . . ?
C11 C3 C22 119.0(4) . . ?
F3 C4 C5 117.6(4) . . ?
F3 C4 C8 120.2(4) . . ?
C8 C4 C5 122.3(4) . . ?
F2 C5 C1 121.4(4) . . ?
F2 C5 C4 120.3(4) . . ?
C1 C5 C4 118.3(4) . . ?
C16 C6 C2 122.2(4) . . ?
C16 C6 C21 119.2(4) . . ?
C21 C6 C2 118.6(4) . . ?
O1 C7 C13 120.9(4) . . ?
O1 C7 C23 121.5(4) . . ?
C13 C7 C23 117.5(4) . . ?
C3 C8 H8 120.5 . . ?
C4 C8 C3 119.0(4) . . ?
C4 C8 H8 120.5 . . ?
C12 C9 H9 109.1 . . ?
C12 C9 C14 120.8(3) . . ?
C12 C9 C23 118.3(3) . . ?
C14 C9 H9 109.1 . . ?
C14 C9 C23 88.9(3) . . ?
C23 C9 H9 109.1 . . ?
F1 C10 C15 120.0(4) . . ?
F1 C10 C19 117.8(4) . . ?
C19 C10 C15 122.1(4) . . ?
C1 C11 C3 119.8(4) . . ?
C1 C11 H11 120.1 . . ?
C3 C11 H11 120.1 . . ?
C15 C12 C9 122.5(4) . . ?
C15 C12 C24 119.4(4) . . ?
C24 C12 C9 118.0(4) . . ?
C20 C13 C7 122.7(4) . . ?
C26 C13 C7 118.7(4) . . ?
C26 C13 C20 118.6(4) . . ?
C2 C14 C9 116.8(3) . . ?
C2 C14 H14 110.4 . . ?
C2 C14 C22 117.8(3) . . ?
C9 C14 H14 110.4 . . ?
C9 C14 C22 89.4(3) . . ?
C22 C14 H14 110.4 . . ?
C10 C15 C12 119.2(4) . . ?
C10 C15 H15 120.4 . . ?
C12 C15 H15 120.4 . . ?
C6 C16 H16 119.7 . . ?
C6 C16 C28 120.7(4) . . ?
C28 C16 H16 119.7 . . ?
F6 C17 C19 117.7(4) . . ?
F6 C17 C24 120.4(4) . . ?
C24 C17 C19 121.8(4) . . ?
C25 C18 C32 120.2(4) . . ?
C28 C18 C25 118.8(4) . . ?
C28 C18 C32 120.9(4) . . ?
F5 C19 C10 120.9(4) . . ?
F5 C19 C17 120.9(4) . . ?
C10 C19 C17 118.1(4) . . ?
C13 C20 H20 120.0 . . ?
C30 C20 C13 120.0(4) . . ?
C30 C20 H20 120.0 . . ?
C6 C21 H21 120.3 . . ?
C25 C21 C6 119.5(4) . . ?
C25 C21 H21 120.3 . . ?
C3 C22 C14 116.0(3) . . ?
C3 C22 H22 111.5 . . ?
C3 C22 C23 115.8(3) . . ?
C14 C22 H22 111.5 . . ?
C23 C22 C14 88.6(3) . . ?
C23 C22 H22 111.5 . . ?
C7 C23 C9 112.0(3) . . ?
C7 C23 C22 113.8(3) . . ?
C7 C23 H23 113.4 . . ?
C9 C23 H23 113.4 . . ?
C22 C23 C9 88.6(3) . . ?
C22 C23 H23 113.4 . . ?
C12 C24 H24 120.3 . . ?
C17 C24 C12 119.3(4) . . ?
C17 C24 H24 120.3 . . ?
C18 C25 H25 119.5 . . ?
C21 C25 C18 121.0(4) . . ?
C21 C25 H25 119.5 . . ?
C13 C26 H26 119.7 . . ?
C29 C26 C13 120.6(4) . . ?
C29 C26 H26 119.7 . . ?
C29 C27 C31 120.3(5) . . ?
C30 C27 C29 118.7(4) . . ?
C30 C27 C31 121.0(4) . . ?
C16 C28 H28 119.7 . . ?
C18 C28 C16 120.7(4) . . ?
C18 C28 H28 119.7 . . ?
C26 C29 C27 120.7(4) . . ?
C26 C29 H29 119.6 . . ?
C27 C29 H29 119.6 . . ?
C20 C30 H30 119.3 . . ?
C27 C30 C20 121.4(4) . . ?
C27 C30 H30 119.3 . . ?
C27 C31 H31A 109.5 . . ?
C27 C31 H31B 109.5 . . ?
C27 C31 H31C 109.5 . . ?
H31A C31 H31B 109.5 . . ?
H31A C31 H31C 109.5 . . ?
H31B C31 H31C 109.5 . . ?
C18 C32 H32A 109.5 . . ?
C18 C32 H32B 109.5 . . ?
C18 C32 H32C 109.5 . . ?
H32A C32 H32B 109.5 . . ?
H32A C32 H32C 109.5 . . ?
H32B C32 H32C 109.5 . . ?
loop_
_geom_bond_atom_site_label_1
_geom_bond_atom_site_label_2
_geom_bond_distance
_geom_bond_site_symmetry_2
_geom_bond_publ_flag
F1 C10 1.351(5) . ?
F2 C5 1.339(5) . ?
F3 C4 1.357(5) . ?
F4 C1 1.346(5) . ?
F5 C19 1.344(5) . ?
F6 C17 1.352(5) . ?
O1 C7 1.228(5) . ?
O2 C2 1.218(5) . ?
C1 C5 1.374(6) . ?
C1 C11 1.385(6) . ?
C2 C6 1.489(6) . ?
C2 C14 1.519(6) . ?
C3 C8 1.404(6) . ?
C3 C11 1.392(6) . ?
C3 C22 1.510(5) . ?
C4 C5 1.381(6) . ?
C4 C8 1.375(6) . ?
C6 C16 1.385(6) . ?
C6 C21 1.405(6) . ?
C7 C13 1.488(6) . ?
C7 C23 1.513(6) . ?
C8 H8 0.9500 . ?
C9 H9 1.0000 . ?
C9 C12 1.512(5) . ?
C9 C14 1.543(5) . ?
C9 C23 1.590(5) . ?
C10 C15 1.382(6) . ?
C10 C19 1.371(6) . ?
C11 H11 0.9500 . ?
C12 C15 1.394(6) . ?
C12 C24 1.404(6) . ?
C13 C20 1.405(6) . ?
C13 C26 1.397(6) . ?
C14 H14 1.0000 . ?
C14 C22 1.584(5) . ?
C15 H15 0.9500 . ?
C16 H16 0.9500 . ?
C16 C28 1.393(6) . ?
C17 C19 1.387(7) . ?
C17 C24 1.372(6) . ?
C18 C25 1.397(7) . ?
C18 C28 1.380(7) . ?
C18 C32 1.518(6) . ?
C20 H20 0.9500 . ?
C20 C30 1.388(6) . ?
C21 H21 0.9500 . ?
C21 C25 1.393(6) . ?
C22 H22 1.0000 . ?
C22 C23 1.557(6) . ?
C23 H23 1.0000 . ?
C24 H24 0.9500 . ?
C25 H25 0.9500 . ?
C26 H26 0.9500 . ?
C26 C29 1.385(7) . ?
C27 C29 1.396(7) . ?
C27 C30 1.382(7) . ?
C27 C31 1.517(6) . ?
C28 H28 0.9500 . ?
C29 H29 0.9500 . ?
C30 H30 0.9500 . ?
C31 H31A 0.9800 . ?
C31 H31B 0.9800 . ?
C31 H31C 0.9800 . ?
C32 H32A 0.9800 . ?
C32 H32B 0.9800 . ?
C32 H32C 0.9800 . ?
loop_
_cod_related_entry_id
_cod_related_entry_database
_cod_related_entry_code
1 PubChem 168342079
